version 3
run RandomGeometricGraph-3-20240510-13:56:45-8242
attr configname RandomGeometricGraph
attr datetime 20240510-13:56:45
attr datetimef 20240510-135645
attr experiment RandomGeometricGraph
attr inifile omnetpp.ini
attr iterationvars "$R=0.19, $N=0"
attr iterationvarsd R=0.19/N=0
attr iterationvarsf R=0.19,N=0-
attr measurement "$R=0.19, $N=0"
attr network RGG
attr processid 8242
attr repetition 0
attr replication #0
attr resultdir results
attr runnumber 3
attr seedset 0
itervar N 0
itervar R 0.19
config debug-on-errors true
config network RGG
config **.totalNodes 100
config *.rc 0.19
config **.seednum 0
config num-rngs 1
config seed-set 0

par RGG.node[0].port$o[0].channel typename "\"ned.DelayChannel\""
par RGG.node[0].port$o[0].channel disabled false
attr mutable ""
par RGG.node[0].port$o[0].channel delay 0.1s
attr mutable ""
attr unit s
par RGG.node[4].port$o[0].channel typename "\"ned.DelayChannel\""
par RGG.node[4].port$o[0].channel disabled false
attr mutable ""
par RGG.node[4].port$o[0].channel delay 0.1s
attr mutable ""
attr unit s
par RGG.node[0].port$o[1].channel typename "\"ned.DelayChannel\""
par RGG.node[0].port$o[1].channel disabled false
attr mutable ""
par RGG.node[0].port$o[1].channel delay 0.1s
attr mutable ""
attr unit s
par RGG.node[11].port$o[0].channel typename "\"ned.DelayChannel\""
par RGG.node[11].port$o[0].channel disabled false
attr mutable ""
par RGG.node[11].port$o[0].channel delay 0.1s
attr mutable ""
attr unit s
par RGG.node[0].port$o[2].channel typename "\"ned.DelayChannel\""
par RGG.node[0].port$o[2].channel disabled false
attr mutable ""
par RGG.node[0].port$o[2].channel delay 0.1s
attr mutable ""
attr unit s
par RGG.node[22].port$o[0].channel typename "\"ned.DelayChannel\""
par RGG.node[22].port$o[0].channel disabled false
attr mutable ""
par RGG.node[22].port$o[0].channel delay 0.1s
attr mutable ""
attr unit s
par RGG.node[0].port$o[3].channel typename "\"ned.DelayChannel\""
par RGG.node[0].port$o[3].channel disabled false
attr mutable ""
par RGG.node[0].port$o[3].channel delay 0.1s
attr mutable ""
attr unit s
par RGG.node[25].port$o[0].channel typename "\"ned.DelayChannel\""
par RGG.node[25].port$o[0].channel disabled false
attr mutable ""
par RGG.node[25].port$o[0].channel delay 0.1s
attr mutable ""
attr unit s
par RGG.node[0].port$o[4].channel typename "\"ned.DelayChannel\""
par RGG.node[0].port$o[4].channel disabled false
attr mutable ""
par RGG.node[0].port$o[4].channel delay 0.1s
attr mutable ""
attr unit s
par RGG.node[29].port$o[0].channel typename "\"ned.DelayChannel\""
par RGG.node[29].port$o[0].channel disabled false
attr mutable ""
par RGG.node[29].port$o[0].channel delay 0.1s
attr mutable ""
attr unit s
par RGG.node[0].port$o[5].channel typename "\"ned.DelayChannel\""
par RGG.node[0].port$o[5].channel disabled false
attr mutable ""
par RGG.node[0].port$o[5].channel delay 0.1s
attr mutable ""
attr unit s
par RGG.node[44].port$o[0].channel typename "\"ned.DelayChannel\""
par RGG.node[44].port$o[0].channel disabled false
attr mutable ""
par RGG.node[44].port$o[0].channel delay 0.1s
attr mutable ""
attr unit s
par RGG.node[0].port$o[6].channel typename "\"ned.DelayChannel\""
par RGG.node[0].port$o[6].channel disabled false
attr mutable ""
par RGG.node[0].port$o[6].channel delay 0.1s
attr mutable ""
attr unit s
par RGG.node[51].port$o[0].channel typename "\"ned.DelayChannel\""
par RGG.node[51].port$o[0].channel disabled false
attr mutable ""
par RGG.node[51].port$o[0].channel delay 0.1s
attr mutable ""
attr unit s
par RGG.node[0].port$o[7].channel typename "\"ned.DelayChannel\""
par RGG.node[0].port$o[7].channel disabled false
attr mutable ""
par RGG.node[0].port$o[7].channel delay 0.1s
attr mutable ""
attr unit s
par RGG.node[56].port$o[0].channel typename "\"ned.DelayChannel\""
par RGG.node[56].port$o[0].channel disabled false
attr mutable ""
par RGG.node[56].port$o[0].channel delay 0.1s
attr mutable ""
attr unit s
par RGG.node[0].port$o[8].channel typename "\"ned.DelayChannel\""
par RGG.node[0].port$o[8].channel disabled false
attr mutable ""
par RGG.node[0].port$o[8].channel delay 0.1s
attr mutable ""
attr unit s
par RGG.node[58].port$o[0].channel typename "\"ned.DelayChannel\""
par RGG.node[58].port$o[0].channel disabled false
attr mutable ""
par RGG.node[58].port$o[0].channel delay 0.1s
attr mutable ""
attr unit s
par RGG.node[0].port$o[9].channel typename "\"ned.DelayChannel\""
par RGG.node[0].port$o[9].channel disabled false
attr mutable ""
par RGG.node[0].port$o[9].channel delay 0.1s
attr mutable ""
attr unit s
par RGG.node[71].port$o[0].channel typename "\"ned.DelayChannel\""
par RGG.node[71].port$o[0].channel disabled false
attr mutable ""
par RGG.node[71].port$o[0].channel delay 0.1s
attr mutable ""
attr unit s
par RGG.node[0].port$o[10].channel typename "\"ned.DelayChannel\""
par RGG.node[0].port$o[10].channel disabled false
attr mutable ""
par RGG.node[0].port$o[10].channel delay 0.1s
attr mutable ""
attr unit s
par RGG.node[73].port$o[0].channel typename "\"ned.DelayChannel\""
par RGG.node[73].port$o[0].channel disabled false
attr mutable ""
par RGG.node[73].port$o[0].channel delay 0.1s
attr mutable ""
attr unit s
par RGG.node[0].port$o[11].channel typename "\"ned.DelayChannel\""
par RGG.node[0].port$o[11].channel disabled false
attr mutable ""
par RGG.node[0].port$o[11].channel delay 0.1s
attr mutable ""
attr unit s
par RGG.node[83].port$o[0].channel typename "\"ned.DelayChannel\""
par RGG.node[83].port$o[0].channel disabled false
attr mutable ""
par RGG.node[83].port$o[0].channel delay 0.1s
attr mutable ""
attr unit s
par RGG.node[0].port$o[12].channel typename "\"ned.DelayChannel\""
par RGG.node[0].port$o[12].channel disabled false
attr mutable ""
par RGG.node[0].port$o[12].channel delay 0.1s
attr mutable ""
attr unit s
par RGG.node[96].port$o[0].channel typename "\"ned.DelayChannel\""
par RGG.node[96].port$o[0].channel disabled false
attr mutable ""
par RGG.node[96].port$o[0].channel delay 0.1s
attr mutable ""
attr unit s
par RGG.node[1].port$o[0].channel typename "\"ned.DelayChannel\""
par RGG.node[1].port$o[0].channel disabled false
attr mutable ""
par RGG.node[1].port$o[0].channel delay 0.1s
attr mutable ""
attr unit s
par RGG.node[2].port$o[0].channel typename "\"ned.DelayChannel\""
par RGG.node[2].port$o[0].channel disabled false
attr mutable ""
par RGG.node[2].port$o[0].channel delay 0.1s
attr mutable ""
attr unit s
par RGG.node[1].port$o[1].channel typename "\"ned.DelayChannel\""
par RGG.node[1].port$o[1].channel disabled false
attr mutable ""
par RGG.node[1].port$o[1].channel delay 0.1s
attr mutable ""
attr unit s
par RGG.node[3].port$o[0].channel typename "\"ned.DelayChannel\""
par RGG.node[3].port$o[0].channel disabled false
attr mutable ""
par RGG.node[3].port$o[0].channel delay 0.1s
attr mutable ""
attr unit s
par RGG.node[1].port$o[2].channel typename "\"ned.DelayChannel\""
par RGG.node[1].port$o[2].channel disabled false
attr mutable ""
par RGG.node[1].port$o[2].channel delay 0.1s
attr mutable ""
attr unit s
par RGG.node[10].port$o[0].channel typename "\"ned.DelayChannel\""
par RGG.node[10].port$o[0].channel disabled false
attr mutable ""
par RGG.node[10].port$o[0].channel delay 0.1s
attr mutable ""
attr unit s
par RGG.node[1].port$o[3].channel typename "\"ned.DelayChannel\""
par RGG.node[1].port$o[3].channel disabled false
attr mutable ""
par RGG.node[1].port$o[3].channel delay 0.1s
attr mutable ""
attr unit s
par RGG.node[17].port$o[0].channel typename "\"ned.DelayChannel\""
par RGG.node[17].port$o[0].channel disabled false
attr mutable ""
par RGG.node[17].port$o[0].channel delay 0.1s
attr mutable ""
attr unit s
par RGG.node[1].port$o[4].channel typename "\"ned.DelayChannel\""
par RGG.node[1].port$o[4].channel disabled false
attr mutable ""
par RGG.node[1].port$o[4].channel delay 0.1s
attr mutable ""
attr unit s
par RGG.node[19].port$o[0].channel typename "\"ned.DelayChannel\""
par RGG.node[19].port$o[0].channel disabled false
attr mutable ""
par RGG.node[19].port$o[0].channel delay 0.1s
attr mutable ""
attr unit s
par RGG.node[1].port$o[5].channel typename "\"ned.DelayChannel\""
par RGG.node[1].port$o[5].channel disabled false
attr mutable ""
par RGG.node[1].port$o[5].channel delay 0.1s
attr mutable ""
attr unit s
par RGG.node[21].port$o[0].channel typename "\"ned.DelayChannel\""
par RGG.node[21].port$o[0].channel disabled false
attr mutable ""
par RGG.node[21].port$o[0].channel delay 0.1s
attr mutable ""
attr unit s
par RGG.node[1].port$o[6].channel typename "\"ned.DelayChannel\""
par RGG.node[1].port$o[6].channel disabled false
attr mutable ""
par RGG.node[1].port$o[6].channel delay 0.1s
attr mutable ""
attr unit s
par RGG.node[23].port$o[0].channel typename "\"ned.DelayChannel\""
par RGG.node[23].port$o[0].channel disabled false
attr mutable ""
par RGG.node[23].port$o[0].channel delay 0.1s
attr mutable ""
attr unit s
par RGG.node[1].port$o[7].channel typename "\"ned.DelayChannel\""
par RGG.node[1].port$o[7].channel disabled false
attr mutable ""
par RGG.node[1].port$o[7].channel delay 0.1s
attr mutable ""
attr unit s
par RGG.node[31].port$o[0].channel typename "\"ned.DelayChannel\""
par RGG.node[31].port$o[0].channel disabled false
attr mutable ""
par RGG.node[31].port$o[0].channel delay 0.1s
attr mutable ""
attr unit s
par RGG.node[1].port$o[8].channel typename "\"ned.DelayChannel\""
par RGG.node[1].port$o[8].channel disabled false
attr mutable ""
par RGG.node[1].port$o[8].channel delay 0.1s
attr mutable ""
attr unit s
par RGG.node[84].port$o[0].channel typename "\"ned.DelayChannel\""
par RGG.node[84].port$o[0].channel disabled false
attr mutable ""
par RGG.node[84].port$o[0].channel delay 0.1s
attr mutable ""
attr unit s
par RGG.node[1].port$o[9].channel typename "\"ned.DelayChannel\""
par RGG.node[1].port$o[9].channel disabled false
attr mutable ""
par RGG.node[1].port$o[9].channel delay 0.1s
attr mutable ""
attr unit s
par RGG.node[91].port$o[0].channel typename "\"ned.DelayChannel\""
par RGG.node[91].port$o[0].channel disabled false
attr mutable ""
par RGG.node[91].port$o[0].channel delay 0.1s
attr mutable ""
attr unit s
par RGG.node[1].port$o[10].channel typename "\"ned.DelayChannel\""
par RGG.node[1].port$o[10].channel disabled false
attr mutable ""
par RGG.node[1].port$o[10].channel delay 0.1s
attr mutable ""
attr unit s
par RGG.node[93].port$o[0].channel typename "\"ned.DelayChannel\""
par RGG.node[93].port$o[0].channel disabled false
attr mutable ""
par RGG.node[93].port$o[0].channel delay 0.1s
attr mutable ""
attr unit s
par RGG.node[2].port$o[1].channel typename "\"ned.DelayChannel\""
par RGG.node[2].port$o[1].channel disabled false
attr mutable ""
par RGG.node[2].port$o[1].channel delay 0.1s
attr mutable ""
attr unit s
par RGG.node[3].port$o[1].channel typename "\"ned.DelayChannel\""
par RGG.node[3].port$o[1].channel disabled false
attr mutable ""
par RGG.node[3].port$o[1].channel delay 0.1s
attr mutable ""
attr unit s
par RGG.node[2].port$o[2].channel typename "\"ned.DelayChannel\""
par RGG.node[2].port$o[2].channel disabled false
attr mutable ""
par RGG.node[2].port$o[2].channel delay 0.1s
attr mutable ""
attr unit s
par RGG.node[41].port$o[0].channel typename "\"ned.DelayChannel\""
par RGG.node[41].port$o[0].channel disabled false
attr mutable ""
par RGG.node[41].port$o[0].channel delay 0.1s
attr mutable ""
attr unit s
par RGG.node[2].port$o[3].channel typename "\"ned.DelayChannel\""
par RGG.node[2].port$o[3].channel disabled false
attr mutable ""
par RGG.node[2].port$o[3].channel delay 0.1s
attr mutable ""
attr unit s
par RGG.node[84].port$o[1].channel typename "\"ned.DelayChannel\""
par RGG.node[84].port$o[1].channel disabled false
attr mutable ""
par RGG.node[84].port$o[1].channel delay 0.1s
attr mutable ""
attr unit s
par RGG.node[2].port$o[4].channel typename "\"ned.DelayChannel\""
par RGG.node[2].port$o[4].channel disabled false
attr mutable ""
par RGG.node[2].port$o[4].channel delay 0.1s
attr mutable ""
attr unit s
par RGG.node[86].port$o[0].channel typename "\"ned.DelayChannel\""
par RGG.node[86].port$o[0].channel disabled false
attr mutable ""
par RGG.node[86].port$o[0].channel delay 0.1s
attr mutable ""
attr unit s
par RGG.node[2].port$o[5].channel typename "\"ned.DelayChannel\""
par RGG.node[2].port$o[5].channel disabled false
attr mutable ""
par RGG.node[2].port$o[5].channel delay 0.1s
attr mutable ""
attr unit s
par RGG.node[91].port$o[1].channel typename "\"ned.DelayChannel\""
par RGG.node[91].port$o[1].channel disabled false
attr mutable ""
par RGG.node[91].port$o[1].channel delay 0.1s
attr mutable ""
attr unit s
par RGG.node[2].port$o[6].channel typename "\"ned.DelayChannel\""
par RGG.node[2].port$o[6].channel disabled false
attr mutable ""
par RGG.node[2].port$o[6].channel delay 0.1s
attr mutable ""
attr unit s
par RGG.node[93].port$o[1].channel typename "\"ned.DelayChannel\""
par RGG.node[93].port$o[1].channel disabled false
attr mutable ""
par RGG.node[93].port$o[1].channel delay 0.1s
attr mutable ""
attr unit s
par RGG.node[3].port$o[2].channel typename "\"ned.DelayChannel\""
par RGG.node[3].port$o[2].channel disabled false
attr mutable ""
par RGG.node[3].port$o[2].channel delay 0.1s
attr mutable ""
attr unit s
par RGG.node[41].port$o[1].channel typename "\"ned.DelayChannel\""
par RGG.node[41].port$o[1].channel disabled false
attr mutable ""
par RGG.node[41].port$o[1].channel delay 0.1s
attr mutable ""
attr unit s
par RGG.node[3].port$o[3].channel typename "\"ned.DelayChannel\""
par RGG.node[3].port$o[3].channel disabled false
attr mutable ""
par RGG.node[3].port$o[3].channel delay 0.1s
attr mutable ""
attr unit s
par RGG.node[81].port$o[0].channel typename "\"ned.DelayChannel\""
par RGG.node[81].port$o[0].channel disabled false
attr mutable ""
par RGG.node[81].port$o[0].channel delay 0.1s
attr mutable ""
attr unit s
par RGG.node[3].port$o[4].channel typename "\"ned.DelayChannel\""
par RGG.node[3].port$o[4].channel disabled false
attr mutable ""
par RGG.node[3].port$o[4].channel delay 0.1s
attr mutable ""
attr unit s
par RGG.node[84].port$o[2].channel typename "\"ned.DelayChannel\""
par RGG.node[84].port$o[2].channel disabled false
attr mutable ""
par RGG.node[84].port$o[2].channel delay 0.1s
attr mutable ""
attr unit s
par RGG.node[3].port$o[5].channel typename "\"ned.DelayChannel\""
par RGG.node[3].port$o[5].channel disabled false
attr mutable ""
par RGG.node[3].port$o[5].channel delay 0.1s
attr mutable ""
attr unit s
par RGG.node[86].port$o[1].channel typename "\"ned.DelayChannel\""
par RGG.node[86].port$o[1].channel disabled false
attr mutable ""
par RGG.node[86].port$o[1].channel delay 0.1s
attr mutable ""
attr unit s
par RGG.node[3].port$o[6].channel typename "\"ned.DelayChannel\""
par RGG.node[3].port$o[6].channel disabled false
attr mutable ""
par RGG.node[3].port$o[6].channel delay 0.1s
attr mutable ""
attr unit s
par RGG.node[91].port$o[2].channel typename "\"ned.DelayChannel\""
par RGG.node[91].port$o[2].channel disabled false
attr mutable ""
par RGG.node[91].port$o[2].channel delay 0.1s
attr mutable ""
attr unit s
par RGG.node[3].port$o[7].channel typename "\"ned.DelayChannel\""
par RGG.node[3].port$o[7].channel disabled false
attr mutable ""
par RGG.node[3].port$o[7].channel delay 0.1s
attr mutable ""
attr unit s
par RGG.node[93].port$o[2].channel typename "\"ned.DelayChannel\""
par RGG.node[93].port$o[2].channel disabled false
attr mutable ""
par RGG.node[93].port$o[2].channel delay 0.1s
attr mutable ""
attr unit s
par RGG.node[4].port$o[1].channel typename "\"ned.DelayChannel\""
par RGG.node[4].port$o[1].channel disabled false
attr mutable ""
par RGG.node[4].port$o[1].channel delay 0.1s
attr mutable ""
attr unit s
par RGG.node[9].port$o[0].channel typename "\"ned.DelayChannel\""
par RGG.node[9].port$o[0].channel disabled false
attr mutable ""
par RGG.node[9].port$o[0].channel delay 0.1s
attr mutable ""
attr unit s
par RGG.node[4].port$o[2].channel typename "\"ned.DelayChannel\""
par RGG.node[4].port$o[2].channel disabled false
attr mutable ""
par RGG.node[4].port$o[2].channel delay 0.1s
attr mutable ""
attr unit s
par RGG.node[11].port$o[1].channel typename "\"ned.DelayChannel\""
par RGG.node[11].port$o[1].channel disabled false
attr mutable ""
par RGG.node[11].port$o[1].channel delay 0.1s
attr mutable ""
attr unit s
par RGG.node[4].port$o[3].channel typename "\"ned.DelayChannel\""
par RGG.node[4].port$o[3].channel disabled false
attr mutable ""
par RGG.node[4].port$o[3].channel delay 0.1s
attr mutable ""
attr unit s
par RGG.node[22].port$o[1].channel typename "\"ned.DelayChannel\""
par RGG.node[22].port$o[1].channel disabled false
attr mutable ""
par RGG.node[22].port$o[1].channel delay 0.1s
attr mutable ""
attr unit s
par RGG.node[4].port$o[4].channel typename "\"ned.DelayChannel\""
par RGG.node[4].port$o[4].channel disabled false
attr mutable ""
par RGG.node[4].port$o[4].channel delay 0.1s
attr mutable ""
attr unit s
par RGG.node[29].port$o[1].channel typename "\"ned.DelayChannel\""
par RGG.node[29].port$o[1].channel disabled false
attr mutable ""
par RGG.node[29].port$o[1].channel delay 0.1s
attr mutable ""
attr unit s
par RGG.node[4].port$o[5].channel typename "\"ned.DelayChannel\""
par RGG.node[4].port$o[5].channel disabled false
attr mutable ""
par RGG.node[4].port$o[5].channel delay 0.1s
attr mutable ""
attr unit s
par RGG.node[40].port$o[0].channel typename "\"ned.DelayChannel\""
par RGG.node[40].port$o[0].channel disabled false
attr mutable ""
par RGG.node[40].port$o[0].channel delay 0.1s
attr mutable ""
attr unit s
par RGG.node[4].port$o[6].channel typename "\"ned.DelayChannel\""
par RGG.node[4].port$o[6].channel disabled false
attr mutable ""
par RGG.node[4].port$o[6].channel delay 0.1s
attr mutable ""
attr unit s
par RGG.node[48].port$o[0].channel typename "\"ned.DelayChannel\""
par RGG.node[48].port$o[0].channel disabled false
attr mutable ""
par RGG.node[48].port$o[0].channel delay 0.1s
attr mutable ""
attr unit s
par RGG.node[4].port$o[7].channel typename "\"ned.DelayChannel\""
par RGG.node[4].port$o[7].channel disabled false
attr mutable ""
par RGG.node[4].port$o[7].channel delay 0.1s
attr mutable ""
attr unit s
par RGG.node[51].port$o[1].channel typename "\"ned.DelayChannel\""
par RGG.node[51].port$o[1].channel disabled false
attr mutable ""
par RGG.node[51].port$o[1].channel delay 0.1s
attr mutable ""
attr unit s
par RGG.node[4].port$o[8].channel typename "\"ned.DelayChannel\""
par RGG.node[4].port$o[8].channel disabled false
attr mutable ""
par RGG.node[4].port$o[8].channel delay 0.1s
attr mutable ""
attr unit s
par RGG.node[58].port$o[1].channel typename "\"ned.DelayChannel\""
par RGG.node[58].port$o[1].channel disabled false
attr mutable ""
par RGG.node[58].port$o[1].channel delay 0.1s
attr mutable ""
attr unit s
par RGG.node[4].port$o[9].channel typename "\"ned.DelayChannel\""
par RGG.node[4].port$o[9].channel disabled false
attr mutable ""
par RGG.node[4].port$o[9].channel delay 0.1s
attr mutable ""
attr unit s
par RGG.node[59].port$o[0].channel typename "\"ned.DelayChannel\""
par RGG.node[59].port$o[0].channel disabled false
attr mutable ""
par RGG.node[59].port$o[0].channel delay 0.1s
attr mutable ""
attr unit s
par RGG.node[4].port$o[10].channel typename "\"ned.DelayChannel\""
par RGG.node[4].port$o[10].channel disabled false
attr mutable ""
par RGG.node[4].port$o[10].channel delay 0.1s
attr mutable ""
attr unit s
par RGG.node[65].port$o[0].channel typename "\"ned.DelayChannel\""
par RGG.node[65].port$o[0].channel disabled false
attr mutable ""
par RGG.node[65].port$o[0].channel delay 0.1s
attr mutable ""
attr unit s
par RGG.node[4].port$o[11].channel typename "\"ned.DelayChannel\""
par RGG.node[4].port$o[11].channel disabled false
attr mutable ""
par RGG.node[4].port$o[11].channel delay 0.1s
attr mutable ""
attr unit s
par RGG.node[71].port$o[1].channel typename "\"ned.DelayChannel\""
par RGG.node[71].port$o[1].channel disabled false
attr mutable ""
par RGG.node[71].port$o[1].channel delay 0.1s
attr mutable ""
attr unit s
par RGG.node[4].port$o[12].channel typename "\"ned.DelayChannel\""
par RGG.node[4].port$o[12].channel disabled false
attr mutable ""
par RGG.node[4].port$o[12].channel delay 0.1s
attr mutable ""
attr unit s
par RGG.node[96].port$o[1].channel typename "\"ned.DelayChannel\""
par RGG.node[96].port$o[1].channel disabled false
attr mutable ""
par RGG.node[96].port$o[1].channel delay 0.1s
attr mutable ""
attr unit s
par RGG.node[5].port$o[0].channel typename "\"ned.DelayChannel\""
par RGG.node[5].port$o[0].channel disabled false
attr mutable ""
par RGG.node[5].port$o[0].channel delay 0.1s
attr mutable ""
attr unit s
par RGG.node[11].port$o[2].channel typename "\"ned.DelayChannel\""
par RGG.node[11].port$o[2].channel disabled false
attr mutable ""
par RGG.node[11].port$o[2].channel delay 0.1s
attr mutable ""
attr unit s
par RGG.node[5].port$o[1].channel typename "\"ned.DelayChannel\""
par RGG.node[5].port$o[1].channel disabled false
attr mutable ""
par RGG.node[5].port$o[1].channel delay 0.1s
attr mutable ""
attr unit s
par RGG.node[12].port$o[0].channel typename "\"ned.DelayChannel\""
par RGG.node[12].port$o[0].channel disabled false
attr mutable ""
par RGG.node[12].port$o[0].channel delay 0.1s
attr mutable ""
attr unit s
par RGG.node[5].port$o[2].channel typename "\"ned.DelayChannel\""
par RGG.node[5].port$o[2].channel disabled false
attr mutable ""
par RGG.node[5].port$o[2].channel delay 0.1s
attr mutable ""
attr unit s
par RGG.node[36].port$o[0].channel typename "\"ned.DelayChannel\""
par RGG.node[36].port$o[0].channel disabled false
attr mutable ""
par RGG.node[36].port$o[0].channel delay 0.1s
attr mutable ""
attr unit s
par RGG.node[5].port$o[3].channel typename "\"ned.DelayChannel\""
par RGG.node[5].port$o[3].channel disabled false
attr mutable ""
par RGG.node[5].port$o[3].channel delay 0.1s
attr mutable ""
attr unit s
par RGG.node[37].port$o[0].channel typename "\"ned.DelayChannel\""
par RGG.node[37].port$o[0].channel disabled false
attr mutable ""
par RGG.node[37].port$o[0].channel delay 0.1s
attr mutable ""
attr unit s
par RGG.node[5].port$o[4].channel typename "\"ned.DelayChannel\""
par RGG.node[5].port$o[4].channel disabled false
attr mutable ""
par RGG.node[5].port$o[4].channel delay 0.1s
attr mutable ""
attr unit s
par RGG.node[39].port$o[0].channel typename "\"ned.DelayChannel\""
par RGG.node[39].port$o[0].channel disabled false
attr mutable ""
par RGG.node[39].port$o[0].channel delay 0.1s
attr mutable ""
attr unit s
par RGG.node[5].port$o[5].channel typename "\"ned.DelayChannel\""
par RGG.node[5].port$o[5].channel disabled false
attr mutable ""
par RGG.node[5].port$o[5].channel delay 0.1s
attr mutable ""
attr unit s
par RGG.node[62].port$o[0].channel typename "\"ned.DelayChannel\""
par RGG.node[62].port$o[0].channel disabled false
attr mutable ""
par RGG.node[62].port$o[0].channel delay 0.1s
attr mutable ""
attr unit s
par RGG.node[5].port$o[6].channel typename "\"ned.DelayChannel\""
par RGG.node[5].port$o[6].channel disabled false
attr mutable ""
par RGG.node[5].port$o[6].channel delay 0.1s
attr mutable ""
attr unit s
par RGG.node[73].port$o[1].channel typename "\"ned.DelayChannel\""
par RGG.node[73].port$o[1].channel disabled false
attr mutable ""
par RGG.node[73].port$o[1].channel delay 0.1s
attr mutable ""
attr unit s
par RGG.node[5].port$o[7].channel typename "\"ned.DelayChannel\""
par RGG.node[5].port$o[7].channel disabled false
attr mutable ""
par RGG.node[5].port$o[7].channel delay 0.1s
attr mutable ""
attr unit s
par RGG.node[83].port$o[1].channel typename "\"ned.DelayChannel\""
par RGG.node[83].port$o[1].channel disabled false
attr mutable ""
par RGG.node[83].port$o[1].channel delay 0.1s
attr mutable ""
attr unit s
par RGG.node[5].port$o[8].channel typename "\"ned.DelayChannel\""
par RGG.node[5].port$o[8].channel disabled false
attr mutable ""
par RGG.node[5].port$o[8].channel delay 0.1s
attr mutable ""
attr unit s
par RGG.node[96].port$o[2].channel typename "\"ned.DelayChannel\""
par RGG.node[96].port$o[2].channel disabled false
attr mutable ""
par RGG.node[96].port$o[2].channel delay 0.1s
attr mutable ""
attr unit s
par RGG.node[5].port$o[9].channel typename "\"ned.DelayChannel\""
par RGG.node[5].port$o[9].channel disabled false
attr mutable ""
par RGG.node[5].port$o[9].channel delay 0.1s
attr mutable ""
attr unit s
par RGG.node[98].port$o[0].channel typename "\"ned.DelayChannel\""
par RGG.node[98].port$o[0].channel disabled false
attr mutable ""
par RGG.node[98].port$o[0].channel delay 0.1s
attr mutable ""
attr unit s
par RGG.node[6].port$o[0].channel typename "\"ned.DelayChannel\""
par RGG.node[6].port$o[0].channel disabled false
attr mutable ""
par RGG.node[6].port$o[0].channel delay 0.1s
attr mutable ""
attr unit s
par RGG.node[9].port$o[1].channel typename "\"ned.DelayChannel\""
par RGG.node[9].port$o[1].channel disabled false
attr mutable ""
par RGG.node[9].port$o[1].channel delay 0.1s
attr mutable ""
attr unit s
par RGG.node[6].port$o[1].channel typename "\"ned.DelayChannel\""
par RGG.node[6].port$o[1].channel disabled false
attr mutable ""
par RGG.node[6].port$o[1].channel delay 0.1s
attr mutable ""
attr unit s
par RGG.node[12].port$o[1].channel typename "\"ned.DelayChannel\""
par RGG.node[12].port$o[1].channel disabled false
attr mutable ""
par RGG.node[12].port$o[1].channel delay 0.1s
attr mutable ""
attr unit s
par RGG.node[6].port$o[2].channel typename "\"ned.DelayChannel\""
par RGG.node[6].port$o[2].channel disabled false
attr mutable ""
par RGG.node[6].port$o[2].channel delay 0.1s
attr mutable ""
attr unit s
par RGG.node[29].port$o[2].channel typename "\"ned.DelayChannel\""
par RGG.node[29].port$o[2].channel disabled false
attr mutable ""
par RGG.node[29].port$o[2].channel delay 0.1s
attr mutable ""
attr unit s
par RGG.node[6].port$o[3].channel typename "\"ned.DelayChannel\""
par RGG.node[6].port$o[3].channel disabled false
attr mutable ""
par RGG.node[6].port$o[3].channel delay 0.1s
attr mutable ""
attr unit s
par RGG.node[32].port$o[0].channel typename "\"ned.DelayChannel\""
par RGG.node[32].port$o[0].channel disabled false
attr mutable ""
par RGG.node[32].port$o[0].channel delay 0.1s
attr mutable ""
attr unit s
par RGG.node[6].port$o[4].channel typename "\"ned.DelayChannel\""
par RGG.node[6].port$o[4].channel disabled false
attr mutable ""
par RGG.node[6].port$o[4].channel delay 0.1s
attr mutable ""
attr unit s
par RGG.node[49].port$o[0].channel typename "\"ned.DelayChannel\""
par RGG.node[49].port$o[0].channel disabled false
attr mutable ""
par RGG.node[49].port$o[0].channel delay 0.1s
attr mutable ""
attr unit s
par RGG.node[6].port$o[5].channel typename "\"ned.DelayChannel\""
par RGG.node[6].port$o[5].channel disabled false
attr mutable ""
par RGG.node[6].port$o[5].channel delay 0.1s
attr mutable ""
attr unit s
par RGG.node[58].port$o[2].channel typename "\"ned.DelayChannel\""
par RGG.node[58].port$o[2].channel disabled false
attr mutable ""
par RGG.node[58].port$o[2].channel delay 0.1s
attr mutable ""
attr unit s
par RGG.node[6].port$o[6].channel typename "\"ned.DelayChannel\""
par RGG.node[6].port$o[6].channel disabled false
attr mutable ""
par RGG.node[6].port$o[6].channel delay 0.1s
attr mutable ""
attr unit s
par RGG.node[94].port$o[0].channel typename "\"ned.DelayChannel\""
par RGG.node[94].port$o[0].channel disabled false
attr mutable ""
par RGG.node[94].port$o[0].channel delay 0.1s
attr mutable ""
attr unit s
par RGG.node[7].port$o[0].channel typename "\"ned.DelayChannel\""
par RGG.node[7].port$o[0].channel disabled false
attr mutable ""
par RGG.node[7].port$o[0].channel delay 0.1s
attr mutable ""
attr unit s
par RGG.node[18].port$o[0].channel typename "\"ned.DelayChannel\""
par RGG.node[18].port$o[0].channel disabled false
attr mutable ""
par RGG.node[18].port$o[0].channel delay 0.1s
attr mutable ""
attr unit s
par RGG.node[7].port$o[1].channel typename "\"ned.DelayChannel\""
par RGG.node[7].port$o[1].channel disabled false
attr mutable ""
par RGG.node[7].port$o[1].channel delay 0.1s
attr mutable ""
attr unit s
par RGG.node[66].port$o[0].channel typename "\"ned.DelayChannel\""
par RGG.node[66].port$o[0].channel disabled false
attr mutable ""
par RGG.node[66].port$o[0].channel delay 0.1s
attr mutable ""
attr unit s
par RGG.node[7].port$o[2].channel typename "\"ned.DelayChannel\""
par RGG.node[7].port$o[2].channel disabled false
attr mutable ""
par RGG.node[7].port$o[2].channel delay 0.1s
attr mutable ""
attr unit s
par RGG.node[72].port$o[0].channel typename "\"ned.DelayChannel\""
par RGG.node[72].port$o[0].channel disabled false
attr mutable ""
par RGG.node[72].port$o[0].channel delay 0.1s
attr mutable ""
attr unit s
par RGG.node[7].port$o[3].channel typename "\"ned.DelayChannel\""
par RGG.node[7].port$o[3].channel disabled false
attr mutable ""
par RGG.node[7].port$o[3].channel delay 0.1s
attr mutable ""
attr unit s
par RGG.node[74].port$o[0].channel typename "\"ned.DelayChannel\""
par RGG.node[74].port$o[0].channel disabled false
attr mutable ""
par RGG.node[74].port$o[0].channel delay 0.1s
attr mutable ""
attr unit s
par RGG.node[8].port$o[0].channel typename "\"ned.DelayChannel\""
par RGG.node[8].port$o[0].channel disabled false
attr mutable ""
par RGG.node[8].port$o[0].channel delay 0.1s
attr mutable ""
attr unit s
par RGG.node[89].port$o[0].channel typename "\"ned.DelayChannel\""
par RGG.node[89].port$o[0].channel disabled false
attr mutable ""
par RGG.node[89].port$o[0].channel delay 0.1s
attr mutable ""
attr unit s
par RGG.node[8].port$o[1].channel typename "\"ned.DelayChannel\""
par RGG.node[8].port$o[1].channel disabled false
attr mutable ""
par RGG.node[8].port$o[1].channel delay 0.1s
attr mutable ""
attr unit s
par RGG.node[98].port$o[1].channel typename "\"ned.DelayChannel\""
par RGG.node[98].port$o[1].channel disabled false
attr mutable ""
par RGG.node[98].port$o[1].channel delay 0.1s
attr mutable ""
attr unit s
par RGG.node[9].port$o[2].channel typename "\"ned.DelayChannel\""
par RGG.node[9].port$o[2].channel disabled false
attr mutable ""
par RGG.node[9].port$o[2].channel delay 0.1s
attr mutable ""
attr unit s
par RGG.node[11].port$o[3].channel typename "\"ned.DelayChannel\""
par RGG.node[11].port$o[3].channel disabled false
attr mutable ""
par RGG.node[11].port$o[3].channel delay 0.1s
attr mutable ""
attr unit s
par RGG.node[9].port$o[3].channel typename "\"ned.DelayChannel\""
par RGG.node[9].port$o[3].channel disabled false
attr mutable ""
par RGG.node[9].port$o[3].channel delay 0.1s
attr mutable ""
attr unit s
par RGG.node[22].port$o[2].channel typename "\"ned.DelayChannel\""
par RGG.node[22].port$o[2].channel disabled false
attr mutable ""
par RGG.node[22].port$o[2].channel delay 0.1s
attr mutable ""
attr unit s
par RGG.node[9].port$o[4].channel typename "\"ned.DelayChannel\""
par RGG.node[9].port$o[4].channel disabled false
attr mutable ""
par RGG.node[9].port$o[4].channel delay 0.1s
attr mutable ""
attr unit s
par RGG.node[29].port$o[3].channel typename "\"ned.DelayChannel\""
par RGG.node[29].port$o[3].channel disabled false
attr mutable ""
par RGG.node[29].port$o[3].channel delay 0.1s
attr mutable ""
attr unit s
par RGG.node[9].port$o[5].channel typename "\"ned.DelayChannel\""
par RGG.node[9].port$o[5].channel disabled false
attr mutable ""
par RGG.node[9].port$o[5].channel delay 0.1s
attr mutable ""
attr unit s
par RGG.node[40].port$o[1].channel typename "\"ned.DelayChannel\""
par RGG.node[40].port$o[1].channel disabled false
attr mutable ""
par RGG.node[40].port$o[1].channel delay 0.1s
attr mutable ""
attr unit s
par RGG.node[9].port$o[6].channel typename "\"ned.DelayChannel\""
par RGG.node[9].port$o[6].channel disabled false
attr mutable ""
par RGG.node[9].port$o[6].channel delay 0.1s
attr mutable ""
attr unit s
par RGG.node[48].port$o[1].channel typename "\"ned.DelayChannel\""
par RGG.node[48].port$o[1].channel disabled false
attr mutable ""
par RGG.node[48].port$o[1].channel delay 0.1s
attr mutable ""
attr unit s
par RGG.node[9].port$o[7].channel typename "\"ned.DelayChannel\""
par RGG.node[9].port$o[7].channel disabled false
attr mutable ""
par RGG.node[9].port$o[7].channel delay 0.1s
attr mutable ""
attr unit s
par RGG.node[49].port$o[1].channel typename "\"ned.DelayChannel\""
par RGG.node[49].port$o[1].channel disabled false
attr mutable ""
par RGG.node[49].port$o[1].channel delay 0.1s
attr mutable ""
attr unit s
par RGG.node[9].port$o[8].channel typename "\"ned.DelayChannel\""
par RGG.node[9].port$o[8].channel disabled false
attr mutable ""
par RGG.node[9].port$o[8].channel delay 0.1s
attr mutable ""
attr unit s
par RGG.node[51].port$o[2].channel typename "\"ned.DelayChannel\""
par RGG.node[51].port$o[2].channel disabled false
attr mutable ""
par RGG.node[51].port$o[2].channel delay 0.1s
attr mutable ""
attr unit s
par RGG.node[9].port$o[9].channel typename "\"ned.DelayChannel\""
par RGG.node[9].port$o[9].channel disabled false
attr mutable ""
par RGG.node[9].port$o[9].channel delay 0.1s
attr mutable ""
attr unit s
par RGG.node[57].port$o[0].channel typename "\"ned.DelayChannel\""
par RGG.node[57].port$o[0].channel disabled false
attr mutable ""
par RGG.node[57].port$o[0].channel delay 0.1s
attr mutable ""
attr unit s
par RGG.node[9].port$o[10].channel typename "\"ned.DelayChannel\""
par RGG.node[9].port$o[10].channel disabled false
attr mutable ""
par RGG.node[9].port$o[10].channel delay 0.1s
attr mutable ""
attr unit s
par RGG.node[58].port$o[3].channel typename "\"ned.DelayChannel\""
par RGG.node[58].port$o[3].channel disabled false
attr mutable ""
par RGG.node[58].port$o[3].channel delay 0.1s
attr mutable ""
attr unit s
par RGG.node[9].port$o[11].channel typename "\"ned.DelayChannel\""
par RGG.node[9].port$o[11].channel disabled false
attr mutable ""
par RGG.node[9].port$o[11].channel delay 0.1s
attr mutable ""
attr unit s
par RGG.node[65].port$o[1].channel typename "\"ned.DelayChannel\""
par RGG.node[65].port$o[1].channel disabled false
attr mutable ""
par RGG.node[65].port$o[1].channel delay 0.1s
attr mutable ""
attr unit s
par RGG.node[9].port$o[12].channel typename "\"ned.DelayChannel\""
par RGG.node[9].port$o[12].channel disabled false
attr mutable ""
par RGG.node[9].port$o[12].channel delay 0.1s
attr mutable ""
attr unit s
par RGG.node[71].port$o[2].channel typename "\"ned.DelayChannel\""
par RGG.node[71].port$o[2].channel disabled false
attr mutable ""
par RGG.node[71].port$o[2].channel delay 0.1s
attr mutable ""
attr unit s
par RGG.node[9].port$o[13].channel typename "\"ned.DelayChannel\""
par RGG.node[9].port$o[13].channel disabled false
attr mutable ""
par RGG.node[9].port$o[13].channel delay 0.1s
attr mutable ""
attr unit s
par RGG.node[78].port$o[0].channel typename "\"ned.DelayChannel\""
par RGG.node[78].port$o[0].channel disabled false
attr mutable ""
par RGG.node[78].port$o[0].channel delay 0.1s
attr mutable ""
attr unit s
par RGG.node[9].port$o[14].channel typename "\"ned.DelayChannel\""
par RGG.node[9].port$o[14].channel disabled false
attr mutable ""
par RGG.node[9].port$o[14].channel delay 0.1s
attr mutable ""
attr unit s
par RGG.node[85].port$o[0].channel typename "\"ned.DelayChannel\""
par RGG.node[85].port$o[0].channel disabled false
attr mutable ""
par RGG.node[85].port$o[0].channel delay 0.1s
attr mutable ""
attr unit s
par RGG.node[10].port$o[1].channel typename "\"ned.DelayChannel\""
par RGG.node[10].port$o[1].channel disabled false
attr mutable ""
par RGG.node[10].port$o[1].channel delay 0.1s
attr mutable ""
attr unit s
par RGG.node[13].port$o[0].channel typename "\"ned.DelayChannel\""
par RGG.node[13].port$o[0].channel disabled false
attr mutable ""
par RGG.node[13].port$o[0].channel delay 0.1s
attr mutable ""
attr unit s
par RGG.node[10].port$o[2].channel typename "\"ned.DelayChannel\""
par RGG.node[10].port$o[2].channel disabled false
attr mutable ""
par RGG.node[10].port$o[2].channel delay 0.1s
attr mutable ""
attr unit s
par RGG.node[17].port$o[1].channel typename "\"ned.DelayChannel\""
par RGG.node[17].port$o[1].channel disabled false
attr mutable ""
par RGG.node[17].port$o[1].channel delay 0.1s
attr mutable ""
attr unit s
par RGG.node[10].port$o[3].channel typename "\"ned.DelayChannel\""
par RGG.node[10].port$o[3].channel disabled false
attr mutable ""
par RGG.node[10].port$o[3].channel delay 0.1s
attr mutable ""
attr unit s
par RGG.node[19].port$o[1].channel typename "\"ned.DelayChannel\""
par RGG.node[19].port$o[1].channel disabled false
attr mutable ""
par RGG.node[19].port$o[1].channel delay 0.1s
attr mutable ""
attr unit s
par RGG.node[10].port$o[4].channel typename "\"ned.DelayChannel\""
par RGG.node[10].port$o[4].channel disabled false
attr mutable ""
par RGG.node[10].port$o[4].channel delay 0.1s
attr mutable ""
attr unit s
par RGG.node[21].port$o[1].channel typename "\"ned.DelayChannel\""
par RGG.node[21].port$o[1].channel disabled false
attr mutable ""
par RGG.node[21].port$o[1].channel delay 0.1s
attr mutable ""
attr unit s
par RGG.node[10].port$o[5].channel typename "\"ned.DelayChannel\""
par RGG.node[10].port$o[5].channel disabled false
attr mutable ""
par RGG.node[10].port$o[5].channel delay 0.1s
attr mutable ""
attr unit s
par RGG.node[23].port$o[1].channel typename "\"ned.DelayChannel\""
par RGG.node[23].port$o[1].channel disabled false
attr mutable ""
par RGG.node[23].port$o[1].channel delay 0.1s
attr mutable ""
attr unit s
par RGG.node[10].port$o[6].channel typename "\"ned.DelayChannel\""
par RGG.node[10].port$o[6].channel disabled false
attr mutable ""
par RGG.node[10].port$o[6].channel delay 0.1s
attr mutable ""
attr unit s
par RGG.node[27].port$o[0].channel typename "\"ned.DelayChannel\""
par RGG.node[27].port$o[0].channel disabled false
attr mutable ""
par RGG.node[27].port$o[0].channel delay 0.1s
attr mutable ""
attr unit s
par RGG.node[10].port$o[7].channel typename "\"ned.DelayChannel\""
par RGG.node[10].port$o[7].channel disabled false
attr mutable ""
par RGG.node[10].port$o[7].channel delay 0.1s
attr mutable ""
attr unit s
par RGG.node[31].port$o[1].channel typename "\"ned.DelayChannel\""
par RGG.node[31].port$o[1].channel disabled false
attr mutable ""
par RGG.node[31].port$o[1].channel delay 0.1s
attr mutable ""
attr unit s
par RGG.node[10].port$o[8].channel typename "\"ned.DelayChannel\""
par RGG.node[10].port$o[8].channel disabled false
attr mutable ""
par RGG.node[10].port$o[8].channel delay 0.1s
attr mutable ""
attr unit s
par RGG.node[38].port$o[0].channel typename "\"ned.DelayChannel\""
par RGG.node[38].port$o[0].channel disabled false
attr mutable ""
par RGG.node[38].port$o[0].channel delay 0.1s
attr mutable ""
attr unit s
par RGG.node[10].port$o[9].channel typename "\"ned.DelayChannel\""
par RGG.node[10].port$o[9].channel disabled false
attr mutable ""
par RGG.node[10].port$o[9].channel delay 0.1s
attr mutable ""
attr unit s
par RGG.node[68].port$o[0].channel typename "\"ned.DelayChannel\""
par RGG.node[68].port$o[0].channel disabled false
attr mutable ""
par RGG.node[68].port$o[0].channel delay 0.1s
attr mutable ""
attr unit s
par RGG.node[10].port$o[10].channel typename "\"ned.DelayChannel\""
par RGG.node[10].port$o[10].channel disabled false
attr mutable ""
par RGG.node[10].port$o[10].channel delay 0.1s
attr mutable ""
attr unit s
par RGG.node[91].port$o[3].channel typename "\"ned.DelayChannel\""
par RGG.node[91].port$o[3].channel disabled false
attr mutable ""
par RGG.node[91].port$o[3].channel delay 0.1s
attr mutable ""
attr unit s
par RGG.node[10].port$o[11].channel typename "\"ned.DelayChannel\""
par RGG.node[10].port$o[11].channel disabled false
attr mutable ""
par RGG.node[10].port$o[11].channel delay 0.1s
attr mutable ""
attr unit s
par RGG.node[93].port$o[3].channel typename "\"ned.DelayChannel\""
par RGG.node[93].port$o[3].channel disabled false
attr mutable ""
par RGG.node[93].port$o[3].channel delay 0.1s
attr mutable ""
attr unit s
par RGG.node[11].port$o[4].channel typename "\"ned.DelayChannel\""
par RGG.node[11].port$o[4].channel disabled false
attr mutable ""
par RGG.node[11].port$o[4].channel delay 0.1s
attr mutable ""
attr unit s
par RGG.node[12].port$o[2].channel typename "\"ned.DelayChannel\""
par RGG.node[12].port$o[2].channel disabled false
attr mutable ""
par RGG.node[12].port$o[2].channel delay 0.1s
attr mutable ""
attr unit s
par RGG.node[11].port$o[5].channel typename "\"ned.DelayChannel\""
par RGG.node[11].port$o[5].channel disabled false
attr mutable ""
par RGG.node[11].port$o[5].channel delay 0.1s
attr mutable ""
attr unit s
par RGG.node[22].port$o[3].channel typename "\"ned.DelayChannel\""
par RGG.node[22].port$o[3].channel disabled false
attr mutable ""
par RGG.node[22].port$o[3].channel delay 0.1s
attr mutable ""
attr unit s
par RGG.node[11].port$o[6].channel typename "\"ned.DelayChannel\""
par RGG.node[11].port$o[6].channel disabled false
attr mutable ""
par RGG.node[11].port$o[6].channel delay 0.1s
attr mutable ""
attr unit s
par RGG.node[25].port$o[1].channel typename "\"ned.DelayChannel\""
par RGG.node[25].port$o[1].channel disabled false
attr mutable ""
par RGG.node[25].port$o[1].channel delay 0.1s
attr mutable ""
attr unit s
par RGG.node[11].port$o[7].channel typename "\"ned.DelayChannel\""
par RGG.node[11].port$o[7].channel disabled false
attr mutable ""
par RGG.node[11].port$o[7].channel delay 0.1s
attr mutable ""
attr unit s
par RGG.node[29].port$o[4].channel typename "\"ned.DelayChannel\""
par RGG.node[29].port$o[4].channel disabled false
attr mutable ""
par RGG.node[29].port$o[4].channel delay 0.1s
attr mutable ""
attr unit s
par RGG.node[11].port$o[8].channel typename "\"ned.DelayChannel\""
par RGG.node[11].port$o[8].channel disabled false
attr mutable ""
par RGG.node[11].port$o[8].channel delay 0.1s
attr mutable ""
attr unit s
par RGG.node[37].port$o[1].channel typename "\"ned.DelayChannel\""
par RGG.node[37].port$o[1].channel disabled false
attr mutable ""
par RGG.node[37].port$o[1].channel delay 0.1s
attr mutable ""
attr unit s
par RGG.node[11].port$o[9].channel typename "\"ned.DelayChannel\""
par RGG.node[11].port$o[9].channel disabled false
attr mutable ""
par RGG.node[11].port$o[9].channel delay 0.1s
attr mutable ""
attr unit s
par RGG.node[39].port$o[1].channel typename "\"ned.DelayChannel\""
par RGG.node[39].port$o[1].channel disabled false
attr mutable ""
par RGG.node[39].port$o[1].channel delay 0.1s
attr mutable ""
attr unit s
par RGG.node[11].port$o[10].channel typename "\"ned.DelayChannel\""
par RGG.node[11].port$o[10].channel disabled false
attr mutable ""
par RGG.node[11].port$o[10].channel delay 0.1s
attr mutable ""
attr unit s
par RGG.node[51].port$o[3].channel typename "\"ned.DelayChannel\""
par RGG.node[51].port$o[3].channel disabled false
attr mutable ""
par RGG.node[51].port$o[3].channel delay 0.1s
attr mutable ""
attr unit s
par RGG.node[11].port$o[11].channel typename "\"ned.DelayChannel\""
par RGG.node[11].port$o[11].channel disabled false
attr mutable ""
par RGG.node[11].port$o[11].channel delay 0.1s
attr mutable ""
attr unit s
par RGG.node[56].port$o[1].channel typename "\"ned.DelayChannel\""
par RGG.node[56].port$o[1].channel disabled false
attr mutable ""
par RGG.node[56].port$o[1].channel delay 0.1s
attr mutable ""
attr unit s
par RGG.node[11].port$o[12].channel typename "\"ned.DelayChannel\""
par RGG.node[11].port$o[12].channel disabled false
attr mutable ""
par RGG.node[11].port$o[12].channel delay 0.1s
attr mutable ""
attr unit s
par RGG.node[58].port$o[4].channel typename "\"ned.DelayChannel\""
par RGG.node[58].port$o[4].channel disabled false
attr mutable ""
par RGG.node[58].port$o[4].channel delay 0.1s
attr mutable ""
attr unit s
par RGG.node[11].port$o[13].channel typename "\"ned.DelayChannel\""
par RGG.node[11].port$o[13].channel disabled false
attr mutable ""
par RGG.node[11].port$o[13].channel delay 0.1s
attr mutable ""
attr unit s
par RGG.node[71].port$o[3].channel typename "\"ned.DelayChannel\""
par RGG.node[71].port$o[3].channel disabled false
attr mutable ""
par RGG.node[71].port$o[3].channel delay 0.1s
attr mutable ""
attr unit s
par RGG.node[11].port$o[14].channel typename "\"ned.DelayChannel\""
par RGG.node[11].port$o[14].channel disabled false
attr mutable ""
par RGG.node[11].port$o[14].channel delay 0.1s
attr mutable ""
attr unit s
par RGG.node[73].port$o[2].channel typename "\"ned.DelayChannel\""
par RGG.node[73].port$o[2].channel disabled false
attr mutable ""
par RGG.node[73].port$o[2].channel delay 0.1s
attr mutable ""
attr unit s
par RGG.node[11].port$o[15].channel typename "\"ned.DelayChannel\""
par RGG.node[11].port$o[15].channel disabled false
attr mutable ""
par RGG.node[11].port$o[15].channel delay 0.1s
attr mutable ""
attr unit s
par RGG.node[83].port$o[2].channel typename "\"ned.DelayChannel\""
par RGG.node[83].port$o[2].channel disabled false
attr mutable ""
par RGG.node[83].port$o[2].channel delay 0.1s
attr mutable ""
attr unit s
par RGG.node[11].port$o[16].channel typename "\"ned.DelayChannel\""
par RGG.node[11].port$o[16].channel disabled false
attr mutable ""
par RGG.node[11].port$o[16].channel delay 0.1s
attr mutable ""
attr unit s
par RGG.node[96].port$o[3].channel typename "\"ned.DelayChannel\""
par RGG.node[96].port$o[3].channel disabled false
attr mutable ""
par RGG.node[96].port$o[3].channel delay 0.1s
attr mutable ""
attr unit s
par RGG.node[12].port$o[3].channel typename "\"ned.DelayChannel\""
par RGG.node[12].port$o[3].channel disabled false
attr mutable ""
par RGG.node[12].port$o[3].channel delay 0.1s
attr mutable ""
attr unit s
par RGG.node[22].port$o[4].channel typename "\"ned.DelayChannel\""
par RGG.node[22].port$o[4].channel disabled false
attr mutable ""
par RGG.node[22].port$o[4].channel delay 0.1s
attr mutable ""
attr unit s
par RGG.node[12].port$o[4].channel typename "\"ned.DelayChannel\""
par RGG.node[12].port$o[4].channel disabled false
attr mutable ""
par RGG.node[12].port$o[4].channel delay 0.1s
attr mutable ""
attr unit s
par RGG.node[29].port$o[5].channel typename "\"ned.DelayChannel\""
par RGG.node[29].port$o[5].channel disabled false
attr mutable ""
par RGG.node[29].port$o[5].channel delay 0.1s
attr mutable ""
attr unit s
par RGG.node[12].port$o[5].channel typename "\"ned.DelayChannel\""
par RGG.node[12].port$o[5].channel disabled false
attr mutable ""
par RGG.node[12].port$o[5].channel delay 0.1s
attr mutable ""
attr unit s
par RGG.node[36].port$o[1].channel typename "\"ned.DelayChannel\""
par RGG.node[36].port$o[1].channel disabled false
attr mutable ""
par RGG.node[36].port$o[1].channel delay 0.1s
attr mutable ""
attr unit s
par RGG.node[12].port$o[6].channel typename "\"ned.DelayChannel\""
par RGG.node[12].port$o[6].channel disabled false
attr mutable ""
par RGG.node[12].port$o[6].channel delay 0.1s
attr mutable ""
attr unit s
par RGG.node[37].port$o[2].channel typename "\"ned.DelayChannel\""
par RGG.node[37].port$o[2].channel disabled false
attr mutable ""
par RGG.node[37].port$o[2].channel delay 0.1s
attr mutable ""
attr unit s
par RGG.node[12].port$o[7].channel typename "\"ned.DelayChannel\""
par RGG.node[12].port$o[7].channel disabled false
attr mutable ""
par RGG.node[12].port$o[7].channel delay 0.1s
attr mutable ""
attr unit s
par RGG.node[39].port$o[2].channel typename "\"ned.DelayChannel\""
par RGG.node[39].port$o[2].channel disabled false
attr mutable ""
par RGG.node[39].port$o[2].channel delay 0.1s
attr mutable ""
attr unit s
par RGG.node[12].port$o[8].channel typename "\"ned.DelayChannel\""
par RGG.node[12].port$o[8].channel disabled false
attr mutable ""
par RGG.node[12].port$o[8].channel delay 0.1s
attr mutable ""
attr unit s
par RGG.node[58].port$o[5].channel typename "\"ned.DelayChannel\""
par RGG.node[58].port$o[5].channel disabled false
attr mutable ""
par RGG.node[58].port$o[5].channel delay 0.1s
attr mutable ""
attr unit s
par RGG.node[12].port$o[9].channel typename "\"ned.DelayChannel\""
par RGG.node[12].port$o[9].channel disabled false
attr mutable ""
par RGG.node[12].port$o[9].channel delay 0.1s
attr mutable ""
attr unit s
par RGG.node[62].port$o[1].channel typename "\"ned.DelayChannel\""
par RGG.node[62].port$o[1].channel disabled false
attr mutable ""
par RGG.node[62].port$o[1].channel delay 0.1s
attr mutable ""
attr unit s
par RGG.node[12].port$o[10].channel typename "\"ned.DelayChannel\""
par RGG.node[12].port$o[10].channel disabled false
attr mutable ""
par RGG.node[12].port$o[10].channel delay 0.1s
attr mutable ""
attr unit s
par RGG.node[71].port$o[4].channel typename "\"ned.DelayChannel\""
par RGG.node[71].port$o[4].channel disabled false
attr mutable ""
par RGG.node[71].port$o[4].channel delay 0.1s
attr mutable ""
attr unit s
par RGG.node[12].port$o[11].channel typename "\"ned.DelayChannel\""
par RGG.node[12].port$o[11].channel disabled false
attr mutable ""
par RGG.node[12].port$o[11].channel delay 0.1s
attr mutable ""
attr unit s
par RGG.node[73].port$o[3].channel typename "\"ned.DelayChannel\""
par RGG.node[73].port$o[3].channel disabled false
attr mutable ""
par RGG.node[73].port$o[3].channel delay 0.1s
attr mutable ""
attr unit s
par RGG.node[12].port$o[12].channel typename "\"ned.DelayChannel\""
par RGG.node[12].port$o[12].channel disabled false
attr mutable ""
par RGG.node[12].port$o[12].channel delay 0.1s
attr mutable ""
attr unit s
par RGG.node[96].port$o[4].channel typename "\"ned.DelayChannel\""
par RGG.node[96].port$o[4].channel disabled false
attr mutable ""
par RGG.node[96].port$o[4].channel delay 0.1s
attr mutable ""
attr unit s
par RGG.node[13].port$o[1].channel typename "\"ned.DelayChannel\""
par RGG.node[13].port$o[1].channel disabled false
attr mutable ""
par RGG.node[13].port$o[1].channel delay 0.1s
attr mutable ""
attr unit s
par RGG.node[17].port$o[2].channel typename "\"ned.DelayChannel\""
par RGG.node[17].port$o[2].channel disabled false
attr mutable ""
par RGG.node[17].port$o[2].channel delay 0.1s
attr mutable ""
attr unit s
par RGG.node[13].port$o[2].channel typename "\"ned.DelayChannel\""
par RGG.node[13].port$o[2].channel disabled false
attr mutable ""
par RGG.node[13].port$o[2].channel delay 0.1s
attr mutable ""
attr unit s
par RGG.node[19].port$o[2].channel typename "\"ned.DelayChannel\""
par RGG.node[19].port$o[2].channel disabled false
attr mutable ""
par RGG.node[19].port$o[2].channel delay 0.1s
attr mutable ""
attr unit s
par RGG.node[13].port$o[3].channel typename "\"ned.DelayChannel\""
par RGG.node[13].port$o[3].channel disabled false
attr mutable ""
par RGG.node[13].port$o[3].channel delay 0.1s
attr mutable ""
attr unit s
par RGG.node[21].port$o[2].channel typename "\"ned.DelayChannel\""
par RGG.node[21].port$o[2].channel disabled false
attr mutable ""
par RGG.node[21].port$o[2].channel delay 0.1s
attr mutable ""
attr unit s
par RGG.node[13].port$o[4].channel typename "\"ned.DelayChannel\""
par RGG.node[13].port$o[4].channel disabled false
attr mutable ""
par RGG.node[13].port$o[4].channel delay 0.1s
attr mutable ""
attr unit s
par RGG.node[27].port$o[1].channel typename "\"ned.DelayChannel\""
par RGG.node[27].port$o[1].channel disabled false
attr mutable ""
par RGG.node[27].port$o[1].channel delay 0.1s
attr mutable ""
attr unit s
par RGG.node[13].port$o[5].channel typename "\"ned.DelayChannel\""
par RGG.node[13].port$o[5].channel disabled false
attr mutable ""
par RGG.node[13].port$o[5].channel delay 0.1s
attr mutable ""
attr unit s
par RGG.node[31].port$o[2].channel typename "\"ned.DelayChannel\""
par RGG.node[31].port$o[2].channel disabled false
attr mutable ""
par RGG.node[31].port$o[2].channel delay 0.1s
attr mutable ""
attr unit s
par RGG.node[13].port$o[6].channel typename "\"ned.DelayChannel\""
par RGG.node[13].port$o[6].channel disabled false
attr mutable ""
par RGG.node[13].port$o[6].channel delay 0.1s
attr mutable ""
attr unit s
par RGG.node[38].port$o[1].channel typename "\"ned.DelayChannel\""
par RGG.node[38].port$o[1].channel disabled false
attr mutable ""
par RGG.node[38].port$o[1].channel delay 0.1s
attr mutable ""
attr unit s
par RGG.node[13].port$o[7].channel typename "\"ned.DelayChannel\""
par RGG.node[13].port$o[7].channel disabled false
attr mutable ""
par RGG.node[13].port$o[7].channel delay 0.1s
attr mutable ""
attr unit s
par RGG.node[52].port$o[0].channel typename "\"ned.DelayChannel\""
par RGG.node[52].port$o[0].channel disabled false
attr mutable ""
par RGG.node[52].port$o[0].channel delay 0.1s
attr mutable ""
attr unit s
par RGG.node[13].port$o[8].channel typename "\"ned.DelayChannel\""
par RGG.node[13].port$o[8].channel disabled false
attr mutable ""
par RGG.node[13].port$o[8].channel delay 0.1s
attr mutable ""
attr unit s
par RGG.node[68].port$o[1].channel typename "\"ned.DelayChannel\""
par RGG.node[68].port$o[1].channel disabled false
attr mutable ""
par RGG.node[68].port$o[1].channel delay 0.1s
attr mutable ""
attr unit s
par RGG.node[13].port$o[9].channel typename "\"ned.DelayChannel\""
par RGG.node[13].port$o[9].channel disabled false
attr mutable ""
par RGG.node[13].port$o[9].channel delay 0.1s
attr mutable ""
attr unit s
par RGG.node[70].port$o[0].channel typename "\"ned.DelayChannel\""
par RGG.node[70].port$o[0].channel disabled false
attr mutable ""
par RGG.node[70].port$o[0].channel delay 0.1s
attr mutable ""
attr unit s
par RGG.node[14].port$o[0].channel typename "\"ned.DelayChannel\""
par RGG.node[14].port$o[0].channel disabled false
attr mutable ""
par RGG.node[14].port$o[0].channel delay 0.1s
attr mutable ""
attr unit s
par RGG.node[16].port$o[0].channel typename "\"ned.DelayChannel\""
par RGG.node[16].port$o[0].channel disabled false
attr mutable ""
par RGG.node[16].port$o[0].channel delay 0.1s
attr mutable ""
attr unit s
par RGG.node[14].port$o[1].channel typename "\"ned.DelayChannel\""
par RGG.node[14].port$o[1].channel disabled false
attr mutable ""
par RGG.node[14].port$o[1].channel delay 0.1s
attr mutable ""
attr unit s
par RGG.node[34].port$o[0].channel typename "\"ned.DelayChannel\""
par RGG.node[34].port$o[0].channel disabled false
attr mutable ""
par RGG.node[34].port$o[0].channel delay 0.1s
attr mutable ""
attr unit s
par RGG.node[14].port$o[2].channel typename "\"ned.DelayChannel\""
par RGG.node[14].port$o[2].channel disabled false
attr mutable ""
par RGG.node[14].port$o[2].channel delay 0.1s
attr mutable ""
attr unit s
par RGG.node[46].port$o[0].channel typename "\"ned.DelayChannel\""
par RGG.node[46].port$o[0].channel disabled false
attr mutable ""
par RGG.node[46].port$o[0].channel delay 0.1s
attr mutable ""
attr unit s
par RGG.node[14].port$o[3].channel typename "\"ned.DelayChannel\""
par RGG.node[14].port$o[3].channel disabled false
attr mutable ""
par RGG.node[14].port$o[3].channel delay 0.1s
attr mutable ""
attr unit s
par RGG.node[60].port$o[0].channel typename "\"ned.DelayChannel\""
par RGG.node[60].port$o[0].channel disabled false
attr mutable ""
par RGG.node[60].port$o[0].channel delay 0.1s
attr mutable ""
attr unit s
par RGG.node[14].port$o[4].channel typename "\"ned.DelayChannel\""
par RGG.node[14].port$o[4].channel disabled false
attr mutable ""
par RGG.node[14].port$o[4].channel delay 0.1s
attr mutable ""
attr unit s
par RGG.node[75].port$o[0].channel typename "\"ned.DelayChannel\""
par RGG.node[75].port$o[0].channel disabled false
attr mutable ""
par RGG.node[75].port$o[0].channel delay 0.1s
attr mutable ""
attr unit s
par RGG.node[14].port$o[5].channel typename "\"ned.DelayChannel\""
par RGG.node[14].port$o[5].channel disabled false
attr mutable ""
par RGG.node[14].port$o[5].channel delay 0.1s
attr mutable ""
attr unit s
par RGG.node[77].port$o[0].channel typename "\"ned.DelayChannel\""
par RGG.node[77].port$o[0].channel disabled false
attr mutable ""
par RGG.node[77].port$o[0].channel delay 0.1s
attr mutable ""
attr unit s
par RGG.node[14].port$o[6].channel typename "\"ned.DelayChannel\""
par RGG.node[14].port$o[6].channel disabled false
attr mutable ""
par RGG.node[14].port$o[6].channel delay 0.1s
attr mutable ""
attr unit s
par RGG.node[82].port$o[0].channel typename "\"ned.DelayChannel\""
par RGG.node[82].port$o[0].channel disabled false
attr mutable ""
par RGG.node[82].port$o[0].channel delay 0.1s
attr mutable ""
attr unit s
par RGG.node[14].port$o[7].channel typename "\"ned.DelayChannel\""
par RGG.node[14].port$o[7].channel disabled false
attr mutable ""
par RGG.node[14].port$o[7].channel delay 0.1s
attr mutable ""
attr unit s
par RGG.node[95].port$o[0].channel typename "\"ned.DelayChannel\""
par RGG.node[95].port$o[0].channel disabled false
attr mutable ""
par RGG.node[95].port$o[0].channel delay 0.1s
attr mutable ""
attr unit s
par RGG.node[14].port$o[8].channel typename "\"ned.DelayChannel\""
par RGG.node[14].port$o[8].channel disabled false
attr mutable ""
par RGG.node[14].port$o[8].channel delay 0.1s
attr mutable ""
attr unit s
par RGG.node[97].port$o[0].channel typename "\"ned.DelayChannel\""
par RGG.node[97].port$o[0].channel disabled false
attr mutable ""
par RGG.node[97].port$o[0].channel delay 0.1s
attr mutable ""
attr unit s
par RGG.node[15].port$o[0].channel typename "\"ned.DelayChannel\""
par RGG.node[15].port$o[0].channel disabled false
attr mutable ""
par RGG.node[15].port$o[0].channel delay 0.1s
attr mutable ""
attr unit s
par RGG.node[24].port$o[0].channel typename "\"ned.DelayChannel\""
par RGG.node[24].port$o[0].channel disabled false
attr mutable ""
par RGG.node[24].port$o[0].channel delay 0.1s
attr mutable ""
attr unit s
par RGG.node[15].port$o[1].channel typename "\"ned.DelayChannel\""
par RGG.node[15].port$o[1].channel disabled false
attr mutable ""
par RGG.node[15].port$o[1].channel delay 0.1s
attr mutable ""
attr unit s
par RGG.node[26].port$o[0].channel typename "\"ned.DelayChannel\""
par RGG.node[26].port$o[0].channel disabled false
attr mutable ""
par RGG.node[26].port$o[0].channel delay 0.1s
attr mutable ""
attr unit s
par RGG.node[15].port$o[2].channel typename "\"ned.DelayChannel\""
par RGG.node[15].port$o[2].channel disabled false
attr mutable ""
par RGG.node[15].port$o[2].channel delay 0.1s
attr mutable ""
attr unit s
par RGG.node[47].port$o[0].channel typename "\"ned.DelayChannel\""
par RGG.node[47].port$o[0].channel disabled false
attr mutable ""
par RGG.node[47].port$o[0].channel delay 0.1s
attr mutable ""
attr unit s
par RGG.node[15].port$o[3].channel typename "\"ned.DelayChannel\""
par RGG.node[15].port$o[3].channel disabled false
attr mutable ""
par RGG.node[15].port$o[3].channel delay 0.1s
attr mutable ""
attr unit s
par RGG.node[53].port$o[0].channel typename "\"ned.DelayChannel\""
par RGG.node[53].port$o[0].channel disabled false
attr mutable ""
par RGG.node[53].port$o[0].channel delay 0.1s
attr mutable ""
attr unit s
par RGG.node[15].port$o[4].channel typename "\"ned.DelayChannel\""
par RGG.node[15].port$o[4].channel disabled false
attr mutable ""
par RGG.node[15].port$o[4].channel delay 0.1s
attr mutable ""
attr unit s
par RGG.node[54].port$o[0].channel typename "\"ned.DelayChannel\""
par RGG.node[54].port$o[0].channel disabled false
attr mutable ""
par RGG.node[54].port$o[0].channel delay 0.1s
attr mutable ""
attr unit s
par RGG.node[15].port$o[5].channel typename "\"ned.DelayChannel\""
par RGG.node[15].port$o[5].channel disabled false
attr mutable ""
par RGG.node[15].port$o[5].channel delay 0.1s
attr mutable ""
attr unit s
par RGG.node[59].port$o[1].channel typename "\"ned.DelayChannel\""
par RGG.node[59].port$o[1].channel disabled false
attr mutable ""
par RGG.node[59].port$o[1].channel delay 0.1s
attr mutable ""
attr unit s
par RGG.node[15].port$o[6].channel typename "\"ned.DelayChannel\""
par RGG.node[15].port$o[6].channel disabled false
attr mutable ""
par RGG.node[15].port$o[6].channel delay 0.1s
attr mutable ""
attr unit s
par RGG.node[61].port$o[0].channel typename "\"ned.DelayChannel\""
par RGG.node[61].port$o[0].channel disabled false
attr mutable ""
par RGG.node[61].port$o[0].channel delay 0.1s
attr mutable ""
attr unit s
par RGG.node[15].port$o[7].channel typename "\"ned.DelayChannel\""
par RGG.node[15].port$o[7].channel disabled false
attr mutable ""
par RGG.node[15].port$o[7].channel delay 0.1s
attr mutable ""
attr unit s
par RGG.node[63].port$o[0].channel typename "\"ned.DelayChannel\""
par RGG.node[63].port$o[0].channel disabled false
attr mutable ""
par RGG.node[63].port$o[0].channel delay 0.1s
attr mutable ""
attr unit s
par RGG.node[15].port$o[8].channel typename "\"ned.DelayChannel\""
par RGG.node[15].port$o[8].channel disabled false
attr mutable ""
par RGG.node[15].port$o[8].channel delay 0.1s
attr mutable ""
attr unit s
par RGG.node[67].port$o[0].channel typename "\"ned.DelayChannel\""
par RGG.node[67].port$o[0].channel disabled false
attr mutable ""
par RGG.node[67].port$o[0].channel delay 0.1s
attr mutable ""
attr unit s
par RGG.node[15].port$o[9].channel typename "\"ned.DelayChannel\""
par RGG.node[15].port$o[9].channel disabled false
attr mutable ""
par RGG.node[15].port$o[9].channel delay 0.1s
attr mutable ""
attr unit s
par RGG.node[79].port$o[0].channel typename "\"ned.DelayChannel\""
par RGG.node[79].port$o[0].channel disabled false
attr mutable ""
par RGG.node[79].port$o[0].channel delay 0.1s
attr mutable ""
attr unit s
par RGG.node[15].port$o[10].channel typename "\"ned.DelayChannel\""
par RGG.node[15].port$o[10].channel disabled false
attr mutable ""
par RGG.node[15].port$o[10].channel delay 0.1s
attr mutable ""
attr unit s
par RGG.node[92].port$o[0].channel typename "\"ned.DelayChannel\""
par RGG.node[92].port$o[0].channel disabled false
attr mutable ""
par RGG.node[92].port$o[0].channel delay 0.1s
attr mutable ""
attr unit s
par RGG.node[16].port$o[1].channel typename "\"ned.DelayChannel\""
par RGG.node[16].port$o[1].channel disabled false
attr mutable ""
par RGG.node[16].port$o[1].channel delay 0.1s
attr mutable ""
attr unit s
par RGG.node[34].port$o[1].channel typename "\"ned.DelayChannel\""
par RGG.node[34].port$o[1].channel disabled false
attr mutable ""
par RGG.node[34].port$o[1].channel delay 0.1s
attr mutable ""
attr unit s
par RGG.node[16].port$o[2].channel typename "\"ned.DelayChannel\""
par RGG.node[16].port$o[2].channel disabled false
attr mutable ""
par RGG.node[16].port$o[2].channel delay 0.1s
attr mutable ""
attr unit s
par RGG.node[60].port$o[1].channel typename "\"ned.DelayChannel\""
par RGG.node[60].port$o[1].channel disabled false
attr mutable ""
par RGG.node[60].port$o[1].channel delay 0.1s
attr mutable ""
attr unit s
par RGG.node[16].port$o[3].channel typename "\"ned.DelayChannel\""
par RGG.node[16].port$o[3].channel disabled false
attr mutable ""
par RGG.node[16].port$o[3].channel delay 0.1s
attr mutable ""
attr unit s
par RGG.node[75].port$o[1].channel typename "\"ned.DelayChannel\""
par RGG.node[75].port$o[1].channel disabled false
attr mutable ""
par RGG.node[75].port$o[1].channel delay 0.1s
attr mutable ""
attr unit s
par RGG.node[16].port$o[4].channel typename "\"ned.DelayChannel\""
par RGG.node[16].port$o[4].channel disabled false
attr mutable ""
par RGG.node[16].port$o[4].channel delay 0.1s
attr mutable ""
attr unit s
par RGG.node[77].port$o[1].channel typename "\"ned.DelayChannel\""
par RGG.node[77].port$o[1].channel disabled false
attr mutable ""
par RGG.node[77].port$o[1].channel delay 0.1s
attr mutable ""
attr unit s
par RGG.node[16].port$o[5].channel typename "\"ned.DelayChannel\""
par RGG.node[16].port$o[5].channel disabled false
attr mutable ""
par RGG.node[16].port$o[5].channel delay 0.1s
attr mutable ""
attr unit s
par RGG.node[82].port$o[1].channel typename "\"ned.DelayChannel\""
par RGG.node[82].port$o[1].channel disabled false
attr mutable ""
par RGG.node[82].port$o[1].channel delay 0.1s
attr mutable ""
attr unit s
par RGG.node[16].port$o[6].channel typename "\"ned.DelayChannel\""
par RGG.node[16].port$o[6].channel disabled false
attr mutable ""
par RGG.node[16].port$o[6].channel delay 0.1s
attr mutable ""
attr unit s
par RGG.node[95].port$o[1].channel typename "\"ned.DelayChannel\""
par RGG.node[95].port$o[1].channel disabled false
attr mutable ""
par RGG.node[95].port$o[1].channel delay 0.1s
attr mutable ""
attr unit s
par RGG.node[17].port$o[3].channel typename "\"ned.DelayChannel\""
par RGG.node[17].port$o[3].channel disabled false
attr mutable ""
par RGG.node[17].port$o[3].channel delay 0.1s
attr mutable ""
attr unit s
par RGG.node[19].port$o[3].channel typename "\"ned.DelayChannel\""
par RGG.node[19].port$o[3].channel disabled false
attr mutable ""
par RGG.node[19].port$o[3].channel delay 0.1s
attr mutable ""
attr unit s
par RGG.node[17].port$o[4].channel typename "\"ned.DelayChannel\""
par RGG.node[17].port$o[4].channel disabled false
attr mutable ""
par RGG.node[17].port$o[4].channel delay 0.1s
attr mutable ""
attr unit s
par RGG.node[21].port$o[3].channel typename "\"ned.DelayChannel\""
par RGG.node[21].port$o[3].channel disabled false
attr mutable ""
par RGG.node[21].port$o[3].channel delay 0.1s
attr mutable ""
attr unit s
par RGG.node[17].port$o[5].channel typename "\"ned.DelayChannel\""
par RGG.node[17].port$o[5].channel disabled false
attr mutable ""
par RGG.node[17].port$o[5].channel delay 0.1s
attr mutable ""
attr unit s
par RGG.node[38].port$o[2].channel typename "\"ned.DelayChannel\""
par RGG.node[38].port$o[2].channel disabled false
attr mutable ""
par RGG.node[38].port$o[2].channel delay 0.1s
attr mutable ""
attr unit s
par RGG.node[17].port$o[6].channel typename "\"ned.DelayChannel\""
par RGG.node[17].port$o[6].channel disabled false
attr mutable ""
par RGG.node[17].port$o[6].channel delay 0.1s
attr mutable ""
attr unit s
par RGG.node[52].port$o[1].channel typename "\"ned.DelayChannel\""
par RGG.node[52].port$o[1].channel disabled false
attr mutable ""
par RGG.node[52].port$o[1].channel delay 0.1s
attr mutable ""
attr unit s
par RGG.node[17].port$o[7].channel typename "\"ned.DelayChannel\""
par RGG.node[17].port$o[7].channel disabled false
attr mutable ""
par RGG.node[17].port$o[7].channel delay 0.1s
attr mutable ""
attr unit s
par RGG.node[70].port$o[1].channel typename "\"ned.DelayChannel\""
par RGG.node[70].port$o[1].channel disabled false
attr mutable ""
par RGG.node[70].port$o[1].channel delay 0.1s
attr mutable ""
attr unit s
par RGG.node[17].port$o[8].channel typename "\"ned.DelayChannel\""
par RGG.node[17].port$o[8].channel disabled false
attr mutable ""
par RGG.node[17].port$o[8].channel delay 0.1s
attr mutable ""
attr unit s
par RGG.node[93].port$o[4].channel typename "\"ned.DelayChannel\""
par RGG.node[93].port$o[4].channel disabled false
attr mutable ""
par RGG.node[93].port$o[4].channel delay 0.1s
attr mutable ""
attr unit s
par RGG.node[18].port$o[1].channel typename "\"ned.DelayChannel\""
par RGG.node[18].port$o[1].channel disabled false
attr mutable ""
par RGG.node[18].port$o[1].channel delay 0.1s
attr mutable ""
attr unit s
par RGG.node[35].port$o[0].channel typename "\"ned.DelayChannel\""
par RGG.node[35].port$o[0].channel disabled false
attr mutable ""
par RGG.node[35].port$o[0].channel delay 0.1s
attr mutable ""
attr unit s
par RGG.node[18].port$o[2].channel typename "\"ned.DelayChannel\""
par RGG.node[18].port$o[2].channel disabled false
attr mutable ""
par RGG.node[18].port$o[2].channel delay 0.1s
attr mutable ""
attr unit s
par RGG.node[36].port$o[2].channel typename "\"ned.DelayChannel\""
par RGG.node[36].port$o[2].channel disabled false
attr mutable ""
par RGG.node[36].port$o[2].channel delay 0.1s
attr mutable ""
attr unit s
par RGG.node[18].port$o[3].channel typename "\"ned.DelayChannel\""
par RGG.node[18].port$o[3].channel disabled false
attr mutable ""
par RGG.node[18].port$o[3].channel delay 0.1s
attr mutable ""
attr unit s
par RGG.node[42].port$o[0].channel typename "\"ned.DelayChannel\""
par RGG.node[42].port$o[0].channel disabled false
attr mutable ""
par RGG.node[42].port$o[0].channel delay 0.1s
attr mutable ""
attr unit s
par RGG.node[18].port$o[4].channel typename "\"ned.DelayChannel\""
par RGG.node[18].port$o[4].channel disabled false
attr mutable ""
par RGG.node[18].port$o[4].channel delay 0.1s
attr mutable ""
attr unit s
par RGG.node[45].port$o[0].channel typename "\"ned.DelayChannel\""
par RGG.node[45].port$o[0].channel disabled false
attr mutable ""
par RGG.node[45].port$o[0].channel delay 0.1s
attr mutable ""
attr unit s
par RGG.node[18].port$o[5].channel typename "\"ned.DelayChannel\""
par RGG.node[18].port$o[5].channel disabled false
attr mutable ""
par RGG.node[18].port$o[5].channel delay 0.1s
attr mutable ""
attr unit s
par RGG.node[66].port$o[1].channel typename "\"ned.DelayChannel\""
par RGG.node[66].port$o[1].channel disabled false
attr mutable ""
par RGG.node[66].port$o[1].channel delay 0.1s
attr mutable ""
attr unit s
par RGG.node[18].port$o[6].channel typename "\"ned.DelayChannel\""
par RGG.node[18].port$o[6].channel disabled false
attr mutable ""
par RGG.node[18].port$o[6].channel delay 0.1s
attr mutable ""
attr unit s
par RGG.node[74].port$o[1].channel typename "\"ned.DelayChannel\""
par RGG.node[74].port$o[1].channel disabled false
attr mutable ""
par RGG.node[74].port$o[1].channel delay 0.1s
attr mutable ""
attr unit s
par RGG.node[19].port$o[4].channel typename "\"ned.DelayChannel\""
par RGG.node[19].port$o[4].channel disabled false
attr mutable ""
par RGG.node[19].port$o[4].channel delay 0.1s
attr mutable ""
attr unit s
par RGG.node[21].port$o[4].channel typename "\"ned.DelayChannel\""
par RGG.node[21].port$o[4].channel disabled false
attr mutable ""
par RGG.node[21].port$o[4].channel delay 0.1s
attr mutable ""
attr unit s
par RGG.node[19].port$o[5].channel typename "\"ned.DelayChannel\""
par RGG.node[19].port$o[5].channel disabled false
attr mutable ""
par RGG.node[19].port$o[5].channel delay 0.1s
attr mutable ""
attr unit s
par RGG.node[27].port$o[2].channel typename "\"ned.DelayChannel\""
par RGG.node[27].port$o[2].channel disabled false
attr mutable ""
par RGG.node[27].port$o[2].channel delay 0.1s
attr mutable ""
attr unit s
par RGG.node[19].port$o[6].channel typename "\"ned.DelayChannel\""
par RGG.node[19].port$o[6].channel disabled false
attr mutable ""
par RGG.node[19].port$o[6].channel delay 0.1s
attr mutable ""
attr unit s
par RGG.node[31].port$o[3].channel typename "\"ned.DelayChannel\""
par RGG.node[31].port$o[3].channel disabled false
attr mutable ""
par RGG.node[31].port$o[3].channel delay 0.1s
attr mutable ""
attr unit s
par RGG.node[19].port$o[7].channel typename "\"ned.DelayChannel\""
par RGG.node[19].port$o[7].channel disabled false
attr mutable ""
par RGG.node[19].port$o[7].channel delay 0.1s
attr mutable ""
attr unit s
par RGG.node[38].port$o[3].channel typename "\"ned.DelayChannel\""
par RGG.node[38].port$o[3].channel disabled false
attr mutable ""
par RGG.node[38].port$o[3].channel delay 0.1s
attr mutable ""
attr unit s
par RGG.node[19].port$o[8].channel typename "\"ned.DelayChannel\""
par RGG.node[19].port$o[8].channel disabled false
attr mutable ""
par RGG.node[19].port$o[8].channel delay 0.1s
attr mutable ""
attr unit s
par RGG.node[52].port$o[2].channel typename "\"ned.DelayChannel\""
par RGG.node[52].port$o[2].channel disabled false
attr mutable ""
par RGG.node[52].port$o[2].channel delay 0.1s
attr mutable ""
attr unit s
par RGG.node[19].port$o[9].channel typename "\"ned.DelayChannel\""
par RGG.node[19].port$o[9].channel disabled false
attr mutable ""
par RGG.node[19].port$o[9].channel delay 0.1s
attr mutable ""
attr unit s
par RGG.node[70].port$o[2].channel typename "\"ned.DelayChannel\""
par RGG.node[70].port$o[2].channel disabled false
attr mutable ""
par RGG.node[70].port$o[2].channel delay 0.1s
attr mutable ""
attr unit s
par RGG.node[19].port$o[10].channel typename "\"ned.DelayChannel\""
par RGG.node[19].port$o[10].channel disabled false
attr mutable ""
par RGG.node[19].port$o[10].channel delay 0.1s
attr mutable ""
attr unit s
par RGG.node[93].port$o[5].channel typename "\"ned.DelayChannel\""
par RGG.node[93].port$o[5].channel disabled false
attr mutable ""
par RGG.node[93].port$o[5].channel delay 0.1s
attr mutable ""
attr unit s
par RGG.node[20].port$o[0].channel typename "\"ned.DelayChannel\""
par RGG.node[20].port$o[0].channel disabled false
attr mutable ""
par RGG.node[20].port$o[0].channel delay 0.1s
attr mutable ""
attr unit s
par RGG.node[98].port$o[2].channel typename "\"ned.DelayChannel\""
par RGG.node[98].port$o[2].channel disabled false
attr mutable ""
par RGG.node[98].port$o[2].channel delay 0.1s
attr mutable ""
attr unit s
par RGG.node[21].port$o[5].channel typename "\"ned.DelayChannel\""
par RGG.node[21].port$o[5].channel disabled false
attr mutable ""
par RGG.node[21].port$o[5].channel delay 0.1s
attr mutable ""
attr unit s
par RGG.node[23].port$o[2].channel typename "\"ned.DelayChannel\""
par RGG.node[23].port$o[2].channel disabled false
attr mutable ""
par RGG.node[23].port$o[2].channel delay 0.1s
attr mutable ""
attr unit s
par RGG.node[21].port$o[6].channel typename "\"ned.DelayChannel\""
par RGG.node[21].port$o[6].channel disabled false
attr mutable ""
par RGG.node[21].port$o[6].channel delay 0.1s
attr mutable ""
attr unit s
par RGG.node[27].port$o[3].channel typename "\"ned.DelayChannel\""
par RGG.node[27].port$o[3].channel disabled false
attr mutable ""
par RGG.node[27].port$o[3].channel delay 0.1s
attr mutable ""
attr unit s
par RGG.node[21].port$o[7].channel typename "\"ned.DelayChannel\""
par RGG.node[21].port$o[7].channel disabled false
attr mutable ""
par RGG.node[21].port$o[7].channel delay 0.1s
attr mutable ""
attr unit s
par RGG.node[31].port$o[4].channel typename "\"ned.DelayChannel\""
par RGG.node[31].port$o[4].channel disabled false
attr mutable ""
par RGG.node[31].port$o[4].channel delay 0.1s
attr mutable ""
attr unit s
par RGG.node[21].port$o[8].channel typename "\"ned.DelayChannel\""
par RGG.node[21].port$o[8].channel disabled false
attr mutable ""
par RGG.node[21].port$o[8].channel delay 0.1s
attr mutable ""
attr unit s
par RGG.node[38].port$o[4].channel typename "\"ned.DelayChannel\""
par RGG.node[38].port$o[4].channel disabled false
attr mutable ""
par RGG.node[38].port$o[4].channel delay 0.1s
attr mutable ""
attr unit s
par RGG.node[21].port$o[9].channel typename "\"ned.DelayChannel\""
par RGG.node[21].port$o[9].channel disabled false
attr mutable ""
par RGG.node[21].port$o[9].channel delay 0.1s
attr mutable ""
attr unit s
par RGG.node[68].port$o[2].channel typename "\"ned.DelayChannel\""
par RGG.node[68].port$o[2].channel disabled false
attr mutable ""
par RGG.node[68].port$o[2].channel delay 0.1s
attr mutable ""
attr unit s
par RGG.node[21].port$o[10].channel typename "\"ned.DelayChannel\""
par RGG.node[21].port$o[10].channel disabled false
attr mutable ""
par RGG.node[21].port$o[10].channel delay 0.1s
attr mutable ""
attr unit s
par RGG.node[91].port$o[4].channel typename "\"ned.DelayChannel\""
par RGG.node[91].port$o[4].channel disabled false
attr mutable ""
par RGG.node[91].port$o[4].channel delay 0.1s
attr mutable ""
attr unit s
par RGG.node[21].port$o[11].channel typename "\"ned.DelayChannel\""
par RGG.node[21].port$o[11].channel disabled false
attr mutable ""
par RGG.node[21].port$o[11].channel delay 0.1s
attr mutable ""
attr unit s
par RGG.node[93].port$o[6].channel typename "\"ned.DelayChannel\""
par RGG.node[93].port$o[6].channel disabled false
attr mutable ""
par RGG.node[93].port$o[6].channel delay 0.1s
attr mutable ""
attr unit s
par RGG.node[22].port$o[5].channel typename "\"ned.DelayChannel\""
par RGG.node[22].port$o[5].channel disabled false
attr mutable ""
par RGG.node[22].port$o[5].channel delay 0.1s
attr mutable ""
attr unit s
par RGG.node[25].port$o[2].channel typename "\"ned.DelayChannel\""
par RGG.node[25].port$o[2].channel disabled false
attr mutable ""
par RGG.node[25].port$o[2].channel delay 0.1s
attr mutable ""
attr unit s
par RGG.node[22].port$o[6].channel typename "\"ned.DelayChannel\""
par RGG.node[22].port$o[6].channel disabled false
attr mutable ""
par RGG.node[22].port$o[6].channel delay 0.1s
attr mutable ""
attr unit s
par RGG.node[29].port$o[6].channel typename "\"ned.DelayChannel\""
par RGG.node[29].port$o[6].channel disabled false
attr mutable ""
par RGG.node[29].port$o[6].channel delay 0.1s
attr mutable ""
attr unit s
par RGG.node[22].port$o[7].channel typename "\"ned.DelayChannel\""
par RGG.node[22].port$o[7].channel disabled false
attr mutable ""
par RGG.node[22].port$o[7].channel delay 0.1s
attr mutable ""
attr unit s
par RGG.node[40].port$o[2].channel typename "\"ned.DelayChannel\""
par RGG.node[40].port$o[2].channel disabled false
attr mutable ""
par RGG.node[40].port$o[2].channel delay 0.1s
attr mutable ""
attr unit s
par RGG.node[22].port$o[8].channel typename "\"ned.DelayChannel\""
par RGG.node[22].port$o[8].channel disabled false
attr mutable ""
par RGG.node[22].port$o[8].channel delay 0.1s
attr mutable ""
attr unit s
par RGG.node[48].port$o[2].channel typename "\"ned.DelayChannel\""
par RGG.node[48].port$o[2].channel disabled false
attr mutable ""
par RGG.node[48].port$o[2].channel delay 0.1s
attr mutable ""
attr unit s
par RGG.node[22].port$o[9].channel typename "\"ned.DelayChannel\""
par RGG.node[22].port$o[9].channel disabled false
attr mutable ""
par RGG.node[22].port$o[9].channel delay 0.1s
attr mutable ""
attr unit s
par RGG.node[51].port$o[4].channel typename "\"ned.DelayChannel\""
par RGG.node[51].port$o[4].channel disabled false
attr mutable ""
par RGG.node[51].port$o[4].channel delay 0.1s
attr mutable ""
attr unit s
par RGG.node[22].port$o[10].channel typename "\"ned.DelayChannel\""
par RGG.node[22].port$o[10].channel disabled false
attr mutable ""
par RGG.node[22].port$o[10].channel delay 0.1s
attr mutable ""
attr unit s
par RGG.node[58].port$o[6].channel typename "\"ned.DelayChannel\""
par RGG.node[58].port$o[6].channel disabled false
attr mutable ""
par RGG.node[58].port$o[6].channel delay 0.1s
attr mutable ""
attr unit s
par RGG.node[22].port$o[11].channel typename "\"ned.DelayChannel\""
par RGG.node[22].port$o[11].channel disabled false
attr mutable ""
par RGG.node[22].port$o[11].channel delay 0.1s
attr mutable ""
attr unit s
par RGG.node[65].port$o[2].channel typename "\"ned.DelayChannel\""
par RGG.node[65].port$o[2].channel disabled false
attr mutable ""
par RGG.node[65].port$o[2].channel delay 0.1s
attr mutable ""
attr unit s
par RGG.node[22].port$o[12].channel typename "\"ned.DelayChannel\""
par RGG.node[22].port$o[12].channel disabled false
attr mutable ""
par RGG.node[22].port$o[12].channel delay 0.1s
attr mutable ""
attr unit s
par RGG.node[71].port$o[5].channel typename "\"ned.DelayChannel\""
par RGG.node[71].port$o[5].channel disabled false
attr mutable ""
par RGG.node[71].port$o[5].channel delay 0.1s
attr mutable ""
attr unit s
par RGG.node[22].port$o[13].channel typename "\"ned.DelayChannel\""
par RGG.node[22].port$o[13].channel disabled false
attr mutable ""
par RGG.node[22].port$o[13].channel delay 0.1s
attr mutable ""
attr unit s
par RGG.node[73].port$o[4].channel typename "\"ned.DelayChannel\""
par RGG.node[73].port$o[4].channel disabled false
attr mutable ""
par RGG.node[73].port$o[4].channel delay 0.1s
attr mutable ""
attr unit s
par RGG.node[22].port$o[14].channel typename "\"ned.DelayChannel\""
par RGG.node[22].port$o[14].channel disabled false
attr mutable ""
par RGG.node[22].port$o[14].channel delay 0.1s
attr mutable ""
attr unit s
par RGG.node[78].port$o[1].channel typename "\"ned.DelayChannel\""
par RGG.node[78].port$o[1].channel disabled false
attr mutable ""
par RGG.node[78].port$o[1].channel delay 0.1s
attr mutable ""
attr unit s
par RGG.node[22].port$o[15].channel typename "\"ned.DelayChannel\""
par RGG.node[22].port$o[15].channel disabled false
attr mutable ""
par RGG.node[22].port$o[15].channel delay 0.1s
attr mutable ""
attr unit s
par RGG.node[96].port$o[5].channel typename "\"ned.DelayChannel\""
par RGG.node[96].port$o[5].channel disabled false
attr mutable ""
par RGG.node[96].port$o[5].channel delay 0.1s
attr mutable ""
attr unit s
par RGG.node[23].port$o[3].channel typename "\"ned.DelayChannel\""
par RGG.node[23].port$o[3].channel disabled false
attr mutable ""
par RGG.node[23].port$o[3].channel delay 0.1s
attr mutable ""
attr unit s
par RGG.node[25].port$o[3].channel typename "\"ned.DelayChannel\""
par RGG.node[25].port$o[3].channel disabled false
attr mutable ""
par RGG.node[25].port$o[3].channel delay 0.1s
attr mutable ""
attr unit s
[...]
par RGG.node[78].port$o[14].channel typename "\"ned.DelayChannel\""
par RGG.node[78].port$o[14].channel disabled false
attr mutable ""
par RGG.node[78].port$o[14].channel delay 0.1s
attr mutable ""
attr unit s
par RGG.node[95].port$o[9].channel typename "\"ned.DelayChannel\""
par RGG.node[95].port$o[9].channel disabled false
attr mutable ""
par RGG.node[95].port$o[9].channel delay 0.1s
attr mutable ""
attr unit s
par RGG.node[79].port$o[10].channel typename "\"ned.DelayChannel\""
par RGG.node[79].port$o[10].channel disabled false
attr mutable ""
par RGG.node[79].port$o[10].channel delay 0.1s
attr mutable ""
attr unit s
par RGG.node[92].port$o[11].channel typename "\"ned.DelayChannel\""
par RGG.node[92].port$o[11].channel disabled false
attr mutable ""
par RGG.node[92].port$o[11].channel delay 0.1s
attr mutable ""
attr unit s
par RGG.node[80].port$o[3].channel typename "\"ned.DelayChannel\""
par RGG.node[80].port$o[3].channel disabled false
attr mutable ""
par RGG.node[80].port$o[3].channel delay 0.1s
attr mutable ""
attr unit s
par RGG.node[81].port$o[3].channel typename "\"ned.DelayChannel\""
par RGG.node[81].port$o[3].channel disabled false
attr mutable ""
par RGG.node[81].port$o[3].channel delay 0.1s
attr mutable ""
attr unit s
par RGG.node[81].port$o[4].channel typename "\"ned.DelayChannel\""
par RGG.node[81].port$o[4].channel disabled false
attr mutable ""
par RGG.node[81].port$o[4].channel delay 0.1s
attr mutable ""
attr unit s
par RGG.node[84].port$o[4].channel typename "\"ned.DelayChannel\""
par RGG.node[84].port$o[4].channel disabled false
attr mutable ""
par RGG.node[84].port$o[4].channel delay 0.1s
attr mutable ""
attr unit s
par RGG.node[81].port$o[5].channel typename "\"ned.DelayChannel\""
par RGG.node[81].port$o[5].channel disabled false
attr mutable ""
par RGG.node[81].port$o[5].channel delay 0.1s
attr mutable ""
attr unit s
par RGG.node[86].port$o[3].channel typename "\"ned.DelayChannel\""
par RGG.node[86].port$o[3].channel disabled false
attr mutable ""
par RGG.node[86].port$o[3].channel delay 0.1s
attr mutable ""
attr unit s
par RGG.node[82].port$o[5].channel typename "\"ned.DelayChannel\""
par RGG.node[82].port$o[5].channel disabled false
attr mutable ""
par RGG.node[82].port$o[5].channel delay 0.1s
attr mutable ""
attr unit s
par RGG.node[97].port$o[2].channel typename "\"ned.DelayChannel\""
par RGG.node[97].port$o[2].channel disabled false
attr mutable ""
par RGG.node[97].port$o[2].channel delay 0.1s
attr mutable ""
attr unit s
par RGG.node[82].port$o[6].channel typename "\"ned.DelayChannel\""
par RGG.node[82].port$o[6].channel disabled false
attr mutable ""
par RGG.node[82].port$o[6].channel delay 0.1s
attr mutable ""
attr unit s
par RGG.node[99].port$o[1].channel typename "\"ned.DelayChannel\""
par RGG.node[99].port$o[1].channel disabled false
attr mutable ""
par RGG.node[99].port$o[1].channel delay 0.1s
attr mutable ""
attr unit s
par RGG.node[83].port$o[10].channel typename "\"ned.DelayChannel\""
par RGG.node[83].port$o[10].channel disabled false
attr mutable ""
par RGG.node[83].port$o[10].channel delay 0.1s
attr mutable ""
attr unit s
par RGG.node[96].port$o[16].channel typename "\"ned.DelayChannel\""
par RGG.node[96].port$o[16].channel disabled false
attr mutable ""
par RGG.node[96].port$o[16].channel delay 0.1s
attr mutable ""
attr unit s
par RGG.node[84].port$o[5].channel typename "\"ned.DelayChannel\""
par RGG.node[84].port$o[5].channel disabled false
attr mutable ""
par RGG.node[84].port$o[5].channel delay 0.1s
attr mutable ""
attr unit s
par RGG.node[86].port$o[4].channel typename "\"ned.DelayChannel\""
par RGG.node[86].port$o[4].channel disabled false
attr mutable ""
par RGG.node[86].port$o[4].channel delay 0.1s
attr mutable ""
attr unit s
par RGG.node[84].port$o[6].channel typename "\"ned.DelayChannel\""
par RGG.node[84].port$o[6].channel disabled false
attr mutable ""
par RGG.node[84].port$o[6].channel delay 0.1s
attr mutable ""
attr unit s
par RGG.node[91].port$o[7].channel typename "\"ned.DelayChannel\""
par RGG.node[91].port$o[7].channel disabled false
attr mutable ""
par RGG.node[91].port$o[7].channel delay 0.1s
attr mutable ""
attr unit s
par RGG.node[84].port$o[7].channel typename "\"ned.DelayChannel\""
par RGG.node[84].port$o[7].channel disabled false
attr mutable ""
par RGG.node[84].port$o[7].channel delay 0.1s
attr mutable ""
attr unit s
par RGG.node[93].port$o[9].channel typename "\"ned.DelayChannel\""
par RGG.node[93].port$o[9].channel disabled false
attr mutable ""
par RGG.node[93].port$o[9].channel delay 0.1s
attr mutable ""
attr unit s
par RGG.node[85].port$o[11].channel typename "\"ned.DelayChannel\""
par RGG.node[85].port$o[11].channel disabled false
attr mutable ""
par RGG.node[85].port$o[11].channel delay 0.1s
attr mutable ""
attr unit s
par RGG.node[95].port$o[10].channel typename "\"ned.DelayChannel\""
par RGG.node[95].port$o[10].channel disabled false
attr mutable ""
par RGG.node[95].port$o[10].channel delay 0.1s
attr mutable ""
attr unit s
par RGG.node[86].port$o[5].channel typename "\"ned.DelayChannel\""
par RGG.node[86].port$o[5].channel disabled false
attr mutable ""
par RGG.node[86].port$o[5].channel delay 0.1s
attr mutable ""
attr unit s
par RGG.node[91].port$o[8].channel typename "\"ned.DelayChannel\""
par RGG.node[91].port$o[8].channel disabled false
attr mutable ""
par RGG.node[91].port$o[8].channel delay 0.1s
attr mutable ""
attr unit s
par RGG.node[89].port$o[1].channel typename "\"ned.DelayChannel\""
par RGG.node[89].port$o[1].channel disabled false
attr mutable ""
par RGG.node[89].port$o[1].channel delay 0.1s
attr mutable ""
attr unit s
par RGG.node[98].port$o[5].channel typename "\"ned.DelayChannel\""
par RGG.node[98].port$o[5].channel disabled false
attr mutable ""
par RGG.node[98].port$o[5].channel delay 0.1s
attr mutable ""
attr unit s
par RGG.node[91].port$o[9].channel typename "\"ned.DelayChannel\""
par RGG.node[91].port$o[9].channel disabled false
attr mutable ""
par RGG.node[91].port$o[9].channel delay 0.1s
attr mutable ""
attr unit s
par RGG.node[93].port$o[10].channel typename "\"ned.DelayChannel\""
par RGG.node[93].port$o[10].channel disabled false
attr mutable ""
par RGG.node[93].port$o[10].channel delay 0.1s
attr mutable ""
attr unit s
par RGG.node[94].port$o[7].channel typename "\"ned.DelayChannel\""
par RGG.node[94].port$o[7].channel disabled false
attr mutable ""
par RGG.node[94].port$o[7].channel delay 0.1s
attr mutable ""
attr unit s
par RGG.node[95].port$o[11].channel typename "\"ned.DelayChannel\""
par RGG.node[95].port$o[11].channel disabled false
attr mutable ""
par RGG.node[95].port$o[11].channel delay 0.1s
attr mutable ""
attr unit s
par RGG.node[97].port$o[3].channel typename "\"ned.DelayChannel\""
par RGG.node[97].port$o[3].channel disabled false
attr mutable ""
par RGG.node[97].port$o[3].channel delay 0.1s
attr mutable ""
attr unit s
par RGG.node[99].port$o[2].channel typename "\"ned.DelayChannel\""
par RGG.node[99].port$o[2].channel disabled false
attr mutable ""
par RGG.node[99].port$o[2].channel delay 0.1s
attr mutable ""
attr unit s
par RGG.node[0] typename "\"Node\""
par RGG.node[0] nodeID 1000
par RGG.node[0] xPos 0.548814
par RGG.node[0] yPos 0.592845
par RGG.node[1] typename "\"Node\""
par RGG.node[1] nodeID 1001
par RGG.node[1] xPos 0.715189
par RGG.node[1] yPos 0.844266
par RGG.node[2] typename "\"Node\""
par RGG.node[2] nodeID 1002
par RGG.node[2] xPos 0.602763
par RGG.node[2] yPos 0.857946
par RGG.node[3] typename "\"Node\""
par RGG.node[3] nodeID 1003
par RGG.node[3] xPos 0.544883
par RGG.node[3] yPos 0.847252
par RGG.node[4] typename "\"Node\""
par RGG.node[4] nodeID 1004
par RGG.node[4] xPos 0.423655
par RGG.node[4] yPos 0.623564
par RGG.node[5] typename "\"Node\""
par RGG.node[5] nodeID 1005
par RGG.node[5] xPos 0.645894
par RGG.node[5] yPos 0.384382
par RGG.node[6] typename "\"Node\""
par RGG.node[6] nodeID 1006
par RGG.node[6] xPos 0.437587
par RGG.node[6] yPos 0.297535
par RGG.node[7] typename "\"Node\""
par RGG.node[7] nodeID 1007
par RGG.node[7] xPos 0.891773
par RGG.node[7] yPos 0.056713
par RGG.node[8] typename "\"Node\""
par RGG.node[8] nodeID 1008
par RGG.node[8] xPos 0.963663
par RGG.node[8] yPos 0.272656
par RGG.node[9] typename "\"Node\""
par RGG.node[9] nodeID 1009
par RGG.node[9] xPos 0.383442
par RGG.node[9] yPos 0.477665
par RGG.node[10] typename "\"Node\""
par RGG.node[10] nodeID 1010
par RGG.node[10] xPos 0.791725
par RGG.node[10] yPos 0.812169
par RGG.node[11] typename "\"Node\""
par RGG.node[11] nodeID 1011
par RGG.node[11] xPos 0.528895
par RGG.node[11] yPos 0.479977
par RGG.node[12] typename "\"Node\""
par RGG.node[12] nodeID 1012
par RGG.node[12] xPos 0.568045
par RGG.node[12] yPos 0.392785
par RGG.node[13] typename "\"Node\""
par RGG.node[13] nodeID 1013
par RGG.node[13] xPos 0.925597
par RGG.node[13] yPos 0.836079
par RGG.node[14] typename "\"Node\""
par RGG.node[14] nodeID 1014
par RGG.node[14] xPos 0.0710361
par RGG.node[14] yPos 0.337396
par RGG.node[15] typename "\"Node\""
par RGG.node[15] nodeID 1015
par RGG.node[15] xPos 0.0871293
par RGG.node[15] yPos 0.648172
par RGG.node[16] typename "\"Node\""
par RGG.node[16] nodeID 1016
par RGG.node[16] xPos 0.0202184
par RGG.node[16] yPos 0.368242
par RGG.node[17] typename "\"Node\""
par RGG.node[17] nodeID 1017
par RGG.node[17] xPos 0.83262
par RGG.node[17] yPos 0.957155
par RGG.node[18] typename "\"Node\""
par RGG.node[18] nodeID 1018
par RGG.node[18] xPos 0.778157
par RGG.node[18] yPos 0.140351
par RGG.node[19] typename "\"Node\""
par RGG.node[19] nodeID 1019
par RGG.node[19] xPos 0.870012
par RGG.node[19] yPos 0.870087
par RGG.node[20] typename "\"Node\""
par RGG.node[20] nodeID 1020
par RGG.node[20] xPos 0.978618
par RGG.node[20] yPos 0.473608
par RGG.node[21] typename "\"Node\""
par RGG.node[21] nodeID 1021
par RGG.node[21] xPos 0.799159
par RGG.node[21] yPos 0.800911
par RGG.node[22] typename "\"Node\""
par RGG.node[22] nodeID 1022
par RGG.node[22] xPos 0.461479
par RGG.node[22] yPos 0.520477
par RGG.node[23] typename "\"Node\""
par RGG.node[23] nodeID 1023
par RGG.node[23] xPos 0.780529
par RGG.node[23] yPos 0.67888
par RGG.node[24] typename "\"Node\""
par RGG.node[24] nodeID 1024
par RGG.node[24] xPos 0.118274
par RGG.node[24] yPos 0.720633
par RGG.node[25] typename "\"Node\""
par RGG.node[25] nodeID 1025
par RGG.node[25] xPos 0.639921
par RGG.node[25] yPos 0.58202
par RGG.node[26] typename "\"Node\""
par RGG.node[26] nodeID 1026
par RGG.node[26] xPos 0.143353
par RGG.node[26] yPos 0.537373
par RGG.node[27] typename "\"Node\""
par RGG.node[27] nodeID 1027
par RGG.node[27] xPos 0.944669
par RGG.node[27] yPos 0.758616
par RGG.node[28] typename "\"Node\""
par RGG.node[28] nodeID 1028
par RGG.node[28] xPos 0.521848
par RGG.node[28] yPos 0.105908
par RGG.node[29] typename "\"Node\""
par RGG.node[29] nodeID 1029
par RGG.node[29] xPos 0.414662
par RGG.node[29] yPos 0.4736
par RGG.node[30] typename "\"Node\""
par RGG.node[30] nodeID 1030
par RGG.node[30] xPos 0.264556
par RGG.node[30] yPos 0.186332
par RGG.node[31] typename "\"Node\""
par RGG.node[31] nodeID 1031
par RGG.node[31] xPos 0.774234
par RGG.node[31] yPos 0.736918
par RGG.node[32] typename "\"Node\""
par RGG.node[32] nodeID 1032
par RGG.node[32] xPos 0.45615
par RGG.node[32] yPos 0.21655
par RGG.node[33] typename "\"Node\""
par RGG.node[33] nodeID 1033
par RGG.node[33] xPos 0.568434
par RGG.node[33] yPos 0.135218
par RGG.node[34] typename "\"Node\""
par RGG.node[34] nodeID 1034
par RGG.node[34] xPos 0.0187898
par RGG.node[34] yPos 0.324141
par RGG.node[35] typename "\"Node\""
par RGG.node[35] nodeID 1035
par RGG.node[35] xPos 0.617636
par RGG.node[35] yPos 0.149675
par RGG.node[36] typename "\"Node\""
par RGG.node[36] nodeID 1036
par RGG.node[36] xPos 0.612096
par RGG.node[36] yPos 0.222321
par RGG.node[37] typename "\"Node\""
par RGG.node[37] nodeID 1037
par RGG.node[37] xPos 0.616934
par RGG.node[37] yPos 0.386489
par RGG.node[38] typename "\"Node\""
par RGG.node[38] nodeID 1038
par RGG.node[38] xPos 0.943748
par RGG.node[38] yPos 0.902598
par RGG.node[39] typename "\"Node\""
par RGG.node[39] nodeID 1039
par RGG.node[39] xPos 0.68182
par RGG.node[39] yPos 0.44995
par RGG.node[40] typename "\"Node\""
par RGG.node[40] nodeID 1040
par RGG.node[40] xPos 0.359508
par RGG.node[40] yPos 0.613063
par RGG.node[41] typename "\"Node\""
par RGG.node[41] nodeID 1041
par RGG.node[41] xPos 0.437032
par RGG.node[41] yPos 0.902349
par RGG.node[42] typename "\"Node\""
par RGG.node[42] nodeID 1042
par RGG.node[42] xPos 0.697631
par RGG.node[42] yPos 0.0992804
par RGG.node[43] typename "\"Node\""
par RGG.node[43] nodeID 1043
par RGG.node[43] xPos 0.0602255
par RGG.node[43] yPos 0.969809
par RGG.node[44] typename "\"Node\""
par RGG.node[44] nodeID 1044
par RGG.node[44] xPos 0.666767
par RGG.node[44] yPos 0.65314
par RGG.node[45] typename "\"Node\""
par RGG.node[45] nodeID 1045
par RGG.node[45] xPos 0.670638
par RGG.node[45] yPos 0.17091
par RGG.node[46] typename "\"Node\""
par RGG.node[46] nodeID 1046
par RGG.node[46] xPos 0.210383
par RGG.node[46] yPos 0.358152
par RGG.node[47] typename "\"Node\""
par RGG.node[47] nodeID 1047
par RGG.node[47] xPos 0.128926
par RGG.node[47] yPos 0.750686
par RGG.node[48] typename "\"Node\""
par RGG.node[48] nodeID 1048
par RGG.node[48] xPos 0.315428
par RGG.node[48] yPos 0.607831
par RGG.node[49] typename "\"Node\""
par RGG.node[49] nodeID 1049
par RGG.node[49] xPos 0.363711
par RGG.node[49] yPos 0.325047
par RGG.node[50] typename "\"Node\""
par RGG.node[50] nodeID 1050
par RGG.node[50] xPos 0.570197
par RGG.node[50] yPos 0.0384254
par RGG.node[51] typename "\"Node\""
par RGG.node[51] nodeID 1051
par RGG.node[51] xPos 0.438602
par RGG.node[51] yPos 0.634274
par RGG.node[52] typename "\"Node\""
par RGG.node[52] nodeID 1052
par RGG.node[52] xPos 0.988374
par RGG.node[52] yPos 0.958949
par RGG.node[53] typename "\"Node\""
par RGG.node[53] nodeID 1053
par RGG.node[53] xPos 0.102045
par RGG.node[53] yPos 0.65279
par RGG.node[54] typename "\"Node\""
par RGG.node[54] nodeID 1054
par RGG.node[54] xPos 0.208877
par RGG.node[54] yPos 0.635059
par RGG.node[55] typename "\"Node\""
par RGG.node[55] nodeID 1055
par RGG.node[55] xPos 0.16131
par RGG.node[55] yPos 0.9953
par RGG.node[56] typename "\"Node\""
par RGG.node[56] nodeID 1056
par RGG.node[56] xPos 0.653108
par RGG.node[56] yPos 0.58185
par RGG.node[57] typename "\"Node\""
par RGG.node[57] nodeID 1057
par RGG.node[57] xPos 0.253292
par RGG.node[57] yPos 0.414369
par RGG.node[58] typename "\"Node\""
par RGG.node[58] nodeID 1058
par RGG.node[58] xPos 0.466311
par RGG.node[58] yPos 0.474698
par RGG.node[59] typename "\"Node\""
par RGG.node[59] nodeID 1059
par RGG.node[59] xPos 0.244426
par RGG.node[59] yPos 0.62351
par RGG.node[60] typename "\"Node\""
par RGG.node[60] nodeID 1060
par RGG.node[60] xPos 0.15897
par RGG.node[60] yPos 0.338008
par RGG.node[61] typename "\"Node\""
par RGG.node[61] nodeID 1061
par RGG.node[61] xPos 0.110375
par RGG.node[61] yPos 0.674752
par RGG.node[62] typename "\"Node\""
par RGG.node[62] nodeID 1062
par RGG.node[62] xPos 0.65633
par RGG.node[62] yPos 0.317202
par RGG.node[63] typename "\"Node\""
par RGG.node[63] nodeID 1063
par RGG.node[63] xPos 0.138183
par RGG.node[63] yPos 0.778345
par RGG.node[64] typename "\"Node\""
par RGG.node[64] nodeID 1064
par RGG.node[64] xPos 0.196582
par RGG.node[64] yPos 0.949571
par RGG.node[65] typename "\"Node\""
par RGG.node[65] nodeID 1065
par RGG.node[65] xPos 0.368725
par RGG.node[65] yPos 0.662527
par RGG.node[66] typename "\"Node\""
par RGG.node[66] nodeID 1066
par RGG.node[66] xPos 0.820993
par RGG.node[66] yPos 0.0135716
par RGG.node[67] typename "\"Node\""
par RGG.node[67] nodeID 1067
par RGG.node[67] xPos 0.0971013
par RGG.node[67] yPos 0.622846
par RGG.node[68] typename "\"Node\""
par RGG.node[68] nodeID 1068
par RGG.node[68] xPos 0.837945
par RGG.node[68] yPos 0.67366
par RGG.node[69] typename "\"Node\""
par RGG.node[69] nodeID 1069
par RGG.node[69] xPos 0.0960984
par RGG.node[69] yPos 0.971945
par RGG.node[70] typename "\"Node\""
par RGG.node[70] nodeID 1070
par RGG.node[70] xPos 0.976459
par RGG.node[70] yPos 0.878193
par RGG.node[71] typename "\"Node\""
par RGG.node[71] nodeID 1071
par RGG.node[71] xPos 0.468651
par RGG.node[71] yPos 0.509624
par RGG.node[72] typename "\"Node\""
par RGG.node[72] nodeID 1072
par RGG.node[72] xPos 0.976761
par RGG.node[72] yPos 0.0557147
par RGG.node[73] typename "\"Node\""
par RGG.node[73] nodeID 1073
par RGG.node[73] xPos 0.604846
par RGG.node[73] yPos 0.451159
par RGG.node[74] typename "\"Node\""
par RGG.node[74] nodeID 1074
par RGG.node[74] xPos 0.739264
par RGG.node[74] yPos 0.0199877
par RGG.node[75] typename "\"Node\""
par RGG.node[75] nodeID 1075
par RGG.node[75] xPos 0.0391878
par RGG.node[75] yPos 0.441711
par RGG.node[76] typename "\"Node\""
par RGG.node[76] nodeID 1076
par RGG.node[76] xPos 0.282807
par RGG.node[76] yPos 0.979587
par RGG.node[77] typename "\"Node\""
par RGG.node[77] nodeID 1077
par RGG.node[77] xPos 0.120197
par RGG.node[77] yPos 0.359444
par RGG.node[78] typename "\"Node\""
par RGG.node[78] nodeID 1078
par RGG.node[78] xPos 0.29614
par RGG.node[78] yPos 0.480894
par RGG.node[79] typename "\"Node\""
par RGG.node[79] nodeID 1079
par RGG.node[79] xPos 0.118728
par RGG.node[79] yPos 0.688661
par RGG.node[80] typename "\"Node\""
par RGG.node[80] nodeID 1080
par RGG.node[80] xPos 0.317983
par RGG.node[80] yPos 0.880476
par RGG.node[81] typename "\"Node\""
par RGG.node[81] nodeID 1081
par RGG.node[81] xPos 0.414263
par RGG.node[81] yPos 0.918235
par RGG.node[82] typename "\"Node\""
par RGG.node[82] nodeID 1082
par RGG.node[82] xPos 0.0641475
par RGG.node[82] yPos 0.216822
par RGG.node[83] typename "\"Node\""
par RGG.node[83] nodeID 1083
par RGG.node[83] xPos 0.692472
par RGG.node[83] yPos 0.565189
par RGG.node[84] typename "\"Node\""
par RGG.node[84] nodeID 1084
par RGG.node[84] xPos 0.566601
par RGG.node[84] yPos 0.865103
par RGG.node[85] typename "\"Node\""
par RGG.node[85] nodeID 1085
par RGG.node[85] xPos 0.265389
par RGG.node[85] yPos 0.508969
par RGG.node[86] typename "\"Node\""
par RGG.node[86] nodeID 1086
par RGG.node[86] xPos 0.523248
par RGG.node[86] yPos 0.916723
par RGG.node[87] typename "\"Node\""
par RGG.node[87] nodeID 1087
par RGG.node[87] xPos 0.0939405
par RGG.node[87] yPos 0.921158
par RGG.node[88] typename "\"Node\""
par RGG.node[88] nodeID 1088
par RGG.node[88] xPos 0.575946
par RGG.node[88] yPos 0.0831125
par RGG.node[89] typename "\"Node\""
par RGG.node[89] nodeID 1089
par RGG.node[89] xPos 0.929296
par RGG.node[89] yPos 0.277719
par RGG.node[90] typename "\"Node\""
par RGG.node[90] nodeID 1090
par RGG.node[90] xPos 0.318569
par RGG.node[90] yPos 0.0093567
par RGG.node[91] typename "\"Node\""
par RGG.node[91] nodeID 1091
par RGG.node[91] xPos 0.66741
par RGG.node[91] yPos 0.842342
par RGG.node[92] typename "\"Node\""
par RGG.node[92] nodeID 1092
par RGG.node[92] xPos 0.131798
par RGG.node[92] yPos 0.647174
par RGG.node[93] typename "\"Node\""
par RGG.node[93] nodeID 1093
par RGG.node[93] xPos 0.716327
par RGG.node[93] yPos 0.841386
par RGG.node[94] typename "\"Node\""
par RGG.node[94] nodeID 1094
par RGG.node[94] xPos 0.289406
par RGG.node[94] yPos 0.26473
par RGG.node[95] typename "\"Node\""
par RGG.node[95] nodeID 1095
par RGG.node[95] xPos 0.183191
par RGG.node[95] yPos 0.397821
par RGG.node[96] typename "\"Node\""
par RGG.node[96] nodeID 1096
par RGG.node[96] xPos 0.586513
par RGG.node[96] yPos 0.552821
par RGG.node[97] typename "\"Node\""
par RGG.node[97] nodeID 1097
par RGG.node[97] xPos 0.0201076
par RGG.node[97] yPos 0.16494
par RGG.node[98] typename "\"Node\""
par RGG.node[98] nodeID 1098
par RGG.node[98] xPos 0.82894
par RGG.node[98] yPos 0.369808
par RGG.node[99] typename "\"Node\""
par RGG.node[99] nodeID 1099
par RGG.node[99] xPos 0.00469548
par RGG.node[99] yPos 0.146442
par RGG.controller typename "\"Controller\""
par RGG.controller totalNodes 100
par RGG.controller seednum 0
par RGG typename "\"RGG\""
par RGG totalNodes 100
par RGG rc 0.19

